
 Fire Dynamics Simulator

 Current Date     : November 13, 2020  14:09:06
 Revision         : -dirty-master
 Revision Date    : Fri Nov 13 13:55:55 2020 +0100
 Compiler         : Intel ifort 18.0.1
 Compilation Date : Nov 13, 2020 13:58:25

 MPI Enabled;    Number of MPI Processes:       4
 OpenMP Enabled; Number of OpenMP Threads:      4

 MPI version: 3.1
 MPI library version: Intel(R) MPI Library 2018 Update 1 for Linux* OS


 Job TITLE        : Simple 2D Tunnel test of unstructured ScaRC solver
 Job ID string    : dancing_eddies_mgm_expol


 Grid Dimensions, Mesh     1

   Cells in the X Direction            75
   Cells in the Y Direction             1
   Cells in the Z Direction            40
   Number of Grid Cells              3000


 Physical Dimensions, Mesh     1

   Length (m)                       0.075
   Width  (m)                       0.002
   Height (m)                       0.040
   Initial Time Step (s)            0.004

 Grid Dimensions, Mesh     2

   Cells in the X Direction            75
   Cells in the Y Direction             1
   Cells in the Z Direction            40
   Number of Grid Cells              3000


 Physical Dimensions, Mesh     2

   Length (m)                       0.075
   Width  (m)                       0.002
   Height (m)                       0.040
   Initial Time Step (s)            0.004

 Grid Dimensions, Mesh     3

   Cells in the X Direction            75
   Cells in the Y Direction             1
   Cells in the Z Direction            40
   Number of Grid Cells              3000


 Physical Dimensions, Mesh     3

   Length (m)                       0.075
   Width  (m)                       0.002
   Height (m)                       0.040
   Initial Time Step (s)            0.004

 Grid Dimensions, Mesh     4

   Cells in the X Direction            75
   Cells in the Y Direction             1
   Cells in the Z Direction            40
   Number of Grid Cells              3000


 Physical Dimensions, Mesh     4

   Length (m)                       0.075
   Width  (m)                       0.002
   Height (m)                       0.040
   Initial Time Step (s)            0.004

Total Number of Grid Cells         12000


 Miscellaneous Parameters

   Simulation Start Time (s)          0.0
   Simulation End Time (s)            2.0
   Ambient Temperature (C):         20.00


 Mass Fraction Transformation Matrix to Convert Species Mixtures (Columns) to Primitive Species (Rows)

                         AIR     
   AIR                   1.000000


 Primitive Species Information

   AIR
   Gas Species
   Molecular Weight (g/mol)            28.01340
   Ambient Density (kg/m^3)            1.165
   Enthalpy of Formation (J/kg)        0.00E+00


 Tracked (Lumped) Species Information

   AIR
   Molecular Weight (g/mol)            28.01340
   Ambient Density (kg/m^3)            1.165
   Initial Mass Fraction               1.000
   Enthalpy of Formation (J/kg)      0.00E+00

   Sub Species                    Mass Fraction     Mole Fraction
   AIR                            1.000000E+00      1.000000E+00
 
     Viscosity (kg/m/s) Ambient,  293 K:  1.20E-05
                                  500 K:  1.20E-05
                                 1000 K:  1.20E-05
                                 1500 K:  1.20E-05
   Therm. Cond. (W/m/K) Ambient,  293 K:  1.76E-02
                                  500 K:  1.76E-02
                                 1000 K:  1.76E-02
                                 1500 K:  1.76E-02
        Enthalpy (J/kg) Ambient,  293 K:  3.05E+05
                                  500 K:  5.19E+05
                                 1000 K:  1.04E+06
                                 1500 K:  1.56E+06
    Spec. Heat (J/kg/K) Ambient,  293 K:  1.04E+03
                                  500 K:  1.04E+03
                                 1000 K:  1.04E+03
                                 1500 K:  1.04E+03
   Diff. Coeff. (m^2/s) Ambient,  293 K:  1.99E-05
                                  500 K:  4.93E-05
                                 1000 K:  1.57E-04
                                 1500 K:  3.07E-04


 Material Information


 Surface Conditions

   0 INERT

   1 WALL (DEFAULT)

   2 PLATE

   3 BLOW
     Normal Velocity (m/s)        -0.500
     AIR Mass Fraction         1.000

   4 OPEN
     Passive Vent to Atmosphere

   5 MIRROR
     Symmetry Plane

   6 INTERPOLATED

   7 PERIODIC

   8 HVAC

   9 MASSLESS TRACER

  10 DROPLET

  11 EVACUATION_OUTFLOW
     Normal Velocity (m/s)         0.000

  12 MASSLESS TARGET

  13 PERIODIC FLOW ONLY


 Cut-off Density and Temperature

    Minimum Temperature:   -10.0 C
    Maximum Temperature:  2726.8 C
    Minimum Density:  1.165E-01 kg/m3
    Maximum Density:  2.595E+00 kg/m3


 Device Coordinates

     1 Coords:      0.200000      0.000000      0.000000, Make: null, ID: pres, Quantity: PRESSURE
     2 Coords:      0.000010      0.000000      0.000000, Make: null, ID: error, Quantity: MAXIMUM VELOCITY ERROR
     3 Coords:      0.000010      0.000000      0.000000, Make: null, ID: iter, Quantity: PRESSURE ITERATIONS
     4 Coords:      0.000010      0.000000      0.000000, Make: null, ID: cpu, Quantity: CPU TIME
     5 Coords:      0.000010      0.000000      0.000000, Make: null, ID: SCARC_ITE, Quantity: SCARC ITERATIONS
     6 Coords:      0.000010      0.000000      0.000000, Make: null, ID: SCARC_RES, Quantity: SCARC RESIDUAL
     7 Coords:      0.000010      0.000000      0.000000, Make: null, ID: SCARC_CONV, Quantity: SCARC CONVERGENCE RATE


 Slice File Information, Mesh     1

   Sampling Interval (s)             0.002

   1 Nodes:   0  75   1   1   0  40, Quantity: VELOCITY
   2 Nodes:   0  75   1   1   0  40, Quantity: U-VELOCITY
   3 Nodes:   0  75   1   1   0  40, Quantity: W-VELOCITY
   4 Nodes:   0  75   1   1   0  40, Quantity: H
   5 Nodes:   0  75   1   1   0  40, Quantity: PRESSURE


 Radiation Model Information

   Number of control angles   60
   Time step increment         2
   Angle increment             4
   Phi band   N_theta Solid angle
     1:       60     0.209


 USCARC Information

   Discretization             STRUCTURED
   Global solver                     MGM
   Storage technique             COMPACT
 
 

 Run Time Diagnostics

       Time Step       1   November 13, 2020  14:09:06
       Step Size:    0.395E-02 s, Total Time:      0.004 s
       Pressure Iterations:      1
       Maximum Velocity Error:  0.50E-04 on Mesh   1 at (  76   1  20)
       Maximum Pressure Error:  0.64E+06 on Mesh   1 at (  21   1  25)
       ScaRC: iterations    10, residual  0.20E-08, convergence rate   0.83E-01
       ---------------------------------------------------------------
       Mesh    1
       Max CFL number:  0.12E-01 at (  20,   1,  24)
       Max divergence:  0.50E-11 at (   9,   1,  40)
       Min divergence: -0.73E-11 at (  73,   1,   1)
       Max VN number:   0.23E+00 at (  75,   1,  40)
       Mesh    2
       Max CFL number:  0.29E-01 at (  28,   1,  15)
       Max divergence:  0.11E-10 at (  28,   1,  20)
       Min divergence: -0.84E-11 at (  25,   1,  17)
       Max VN number:   0.23E+00 at (  75,   1,  40)
       Mesh    3
       Max CFL number:  0.78E-02 at (   1,   1,   5)
       Max divergence:  0.17E-11 at (   1,   1,  35)
       Min divergence: -0.94E-11 at (  11,   1,   1)
       Max VN number:   0.23E+00 at (  75,   1,  40)
       Mesh    4
       Max CFL number:  0.78E-02 at (   1,   1,   5)
       Max divergence:  0.95E-12 at (   1,   1,  35)
       Min divergence: -0.34E-11 at (  48,   1,   1)
       Max VN number:   0.23E+00 at (  75,   1,  40)
 
       Time Step       2   November 13, 2020  14:09:06
       Step Size:    0.395E-02 s, Total Time:      0.008 s
       Pressure Iterations:      1
       Maximum Velocity Error:  0.48E-04 on Mesh   1 at (  76   1  20)
       Maximum Pressure Error:  0.64E+06 on Mesh   1 at (  21   1  25)
       ScaRC: iterations    10, residual  0.95E-08, convergence rate   0.84E-01
       ---------------------------------------------------------------
       Mesh    1
       Max CFL number:  0.24E-01 at (  20,   1,  24)
       Max divergence:  0.70E-11 at (  21,   1,  26)
       Min divergence: -0.58E-11 at (  74,   1,  37)
       Max VN number:   0.23E+00 at (   9,   1,  40)
       Mesh    2
       Max CFL number:  0.58E-01 at (  25,   1,  26)
       Max divergence:  0.11E-10 at (  28,   1,  20)
       Min divergence: -0.85E-11 at (  25,   1,  17)
       Max VN number:   0.23E+00 at (  28,   1,  20)
       Mesh    3
       Max CFL number:  0.16E-01 at (   1,   1,   5)
       Max divergence:  0.13E-11 at (   8,   1,   5)
       Min divergence: -0.78E-11 at (  11,   1,  37)
       Max VN number:   0.23E+00 at (   1,   1,  35)
       Mesh    4
       Max CFL number:  0.16E-01 at (   1,   1,   5)
       Max divergence:  0.11E-11 at (   1,   1,   8)
       Min divergence: -0.30E-11 at (  48,   1,  37)
       Max VN number:   0.23E+00 at (   1,   1,  35)
 
       Time Step       3   November 13, 2020  14:09:06
       Step Size:    0.395E-02 s, Total Time:       0.01 s
       Pressure Iterations:      1
       Maximum Velocity Error:  0.49E-04 on Mesh   1 at (  76   1  20)
       Maximum Pressure Error:  0.64E+06 on Mesh   1 at (  21   1  25)
       ScaRC: iterations    10, residual  0.97E-08, convergence rate   0.84E-01
       ---------------------------------------------------------------
       Mesh    1
       Max CFL number:  0.35E-01 at (  20,   1,  24)
       Max divergence:  0.48E-11 at (  21,   1,  26)
       Min divergence: -0.54E-11 at (  21,   1,  24)
       Max VN number:   0.23E+00 at (  21,   1,  26)
       Mesh    2
       Max CFL number:  0.85E-01 at (  25,   1,  26)
       Max divergence:  0.69E-11 at (   1,   1,  23)
       Min divergence: -0.61E-11 at (  73,   1,  37)
       Max VN number:   0.23E+00 at (  28,   1,  20)
       Mesh    3
       Max CFL number:  0.23E-01 at (   1,   1,   5)
       Max divergence:  0.15E-11 at (   1,   1,  16)
       Min divergence: -0.74E-11 at (  11,   1,  37)
       Max VN number:   0.23E+00 at (   3,   1,  40)
       Mesh    4
       Max CFL number:  0.23E-01 at (   1,   1,   5)
       Max divergence:  0.81E-12 at (   1,   1,  25)
       Min divergence: -0.27E-11 at (  48,   1,  37)
       Max VN number:   0.23E+00 at (   1,   1,  35)
 
       Time Step       4   November 13, 2020  14:09:06
       Step Size:    0.395E-02 s, Total Time:       0.02 s
       Pressure Iterations:      1
       Maximum Velocity Error:  0.50E-04 on Mesh   2 at (   0   1  20)
       Maximum Pressure Error:  0.64E+06 on Mesh   1 at (  21   1  25)
       ScaRC: iterations    10, residual  0.99E-08, convergence rate   0.84E-01
       ---------------------------------------------------------------
       Mesh    1
       Max CFL number:  0.46E-01 at (  20,   1,  24)
       Max divergence:  0.45E-11 at (  33,   1,  33)
       Min divergence: -0.45E-11 at (  74,   1,  37)
       Max VN number:   0.23E+00 at (  21,   1,  26)
       Mesh    2
       Max CFL number:  0.11E+00 at (  25,   1,  26)
       Max divergence:  0.67E-11 at (   1,   1,   7)
       Min divergence: -0.56E-11 at (  74,   1,  37)
       Max VN number:   0.23E+00 at (  28,   1,  20)
       Mesh    3
       Max CFL number:  0.31E-01 at (   1,   1,   5)
       Max divergence:  0.17E-11 at (   1,   1,  16)
       Min divergence: -0.71E-11 at (  11,   1,  37)
       Max VN number:   0.23E+00 at (   1,   1,  24)
       Mesh    4
       Max CFL number:  0.31E-01 at (   1,   1,   5)
       Max divergence:  0.10E-11 at (   1,   1,   8)
       Min divergence: -0.25E-11 at (  48,   1,  37)
       Max VN number:   0.23E+00 at (   1,   1,  35)
 
       Time Step       5   November 13, 2020  14:09:06
       Step Size:    0.395E-02 s, Total Time:       0.02 s
       Pressure Iterations:      1
       Maximum Velocity Error:  0.45E-04 on Mesh   1 at (  76   1  20)
       Maximum Pressure Error:  0.64E+06 on Mesh   1 at (  21   1  25)
       ScaRC: iterations    11, residual  0.71E-08, convergence rate   0.10E+00
       ---------------------------------------------------------------
       Mesh    1
       Max CFL number:  0.57E-01 at (  20,   1,  24)
       Max divergence:  0.59E-11 at (  21,   1,  24)
       Min divergence: -0.56E-11 at (  21,   1,  26)
       Max VN number:   0.23E+00 at (  25,   1,  33)
       Mesh    2
       Max CFL number:  0.14E+00 at (  25,   1,  26)
       Max divergence:  0.16E-10 at (  25,   1,  17)
       Min divergence: -0.15E-10 at (  28,   1,  21)
       Max VN number:   0.23E+00 at (  28,   1,  20)
       Mesh    3
       Max CFL number:  0.39E-01 at (   1,   1,   5)
       Max divergence:  0.17E-11 at (   1,   1,   8)
       Min divergence: -0.64E-11 at (  11,   1,  10)
       Max VN number:   0.23E+00 at (   3,   1,  33)
       Mesh    4
       Max CFL number:  0.39E-01 at (   1,   1,   5)
       Max divergence:  0.12E-11 at (   1,   1,   8)
       Min divergence: -0.23E-11 at (  48,   1,  37)
       Max VN number:   0.23E+00 at (   1,   1,  35)
 
       Time Step       6   November 13, 2020  14:09:06
       Step Size:    0.395E-02 s, Total Time:       0.02 s
       Pressure Iterations:      1
       Maximum Velocity Error:  0.45E-04 on Mesh   1 at (  76   1  20)
       Maximum Pressure Error:  0.64E+06 on Mesh   1 at (  21   1  25)
       ScaRC: iterations    11, residual  0.72E-08, convergence rate   0.10E+00
       ---------------------------------------------------------------
       Mesh    1
       Max CFL number:  0.67E-01 at (  20,   1,  24)
       Max divergence:  0.44E-11 at (  17,   1,  33)
       Min divergence: -0.50E-11 at (  21,   1,  26)
       Max VN number:   0.23E+00 at (  17,   1,  25)
       Mesh    2
       Max CFL number:  0.16E+00 at (  25,   1,  26)
       Max divergence:  0.16E-10 at (  25,   1,  17)
       Min divergence: -0.16E-10 at (  28,   1,  20)
       Max VN number:   0.23E+00 at (  28,   1,  20)
       Mesh    3
       Max CFL number:  0.47E-01 at (   1,   1,   5)
       Max divergence:  0.13E-11 at (  21,   1,  34)
       Min divergence: -0.60E-11 at (  11,   1,  37)
       Max VN number:   0.23E+00 at (   1,   1,  12)
       Mesh    4
       Max CFL number:  0.47E-01 at (   1,   1,   5)
       Max divergence:  0.64E-12 at (   7,   1,  25)
       Min divergence: -0.22E-11 at (  48,   1,  37)
       Max VN number:   0.23E+00 at (   1,   1,  35)
 
       Time Step       7   November 13, 2020  14:09:06
       Step Size:    0.395E-02 s, Total Time:       0.03 s
       Pressure Iterations:      1
       Maximum Velocity Error:  0.46E-04 on Mesh   1 at (  76   1  20)
       Maximum Pressure Error:  0.64E+06 on Mesh   1 at (  21   1  25)
       ScaRC: iterations    11, residual  0.73E-08, convergence rate   0.10E+00
       ---------------------------------------------------------------
       Mesh    1
       Max CFL number:  0.77E-01 at (  20,   1,  24)
       Max divergence:  0.44E-11 at (  34,   1,  34)
       Min divergence: -0.33E-11 at (  74,   1,  37)
       Max VN number:   0.23E+00 at (  25,   1,  34)
       Mesh    2
       Max CFL number:  0.18E+00 at (  25,   1,  26)
       Max divergence:  0.16E-10 at (  25,   1,  17)
       Min divergence: -0.16E-10 at (  28,   1,  20)
       Max VN number:   0.23E+00 at (  28,   1,  20)
       Mesh    3
       Max CFL number:  0.55E-01 at (   1,   1,   5)
       Max divergence:  0.11E-11 at (   6,   1,   4)
       Min divergence: -0.56E-11 at (  11,   1,  36)
       Max VN number:   0.23E+00 at (   6,   1,  34)
       Mesh    4
       Max CFL number:  0.55E-01 at (   1,   1,   5)
       Max divergence:  0.51E-12 at (   2,   1,  34)
       Min divergence: -0.21E-11 at (  48,   1,  37)
       Max VN number:   0.23E+00 at (   1,   1,  35)
 
       Time Step       8   November 13, 2020  14:09:06
       Step Size:    0.395E-02 s, Total Time:       0.03 s
       Pressure Iterations:      1
       Maximum Velocity Error:  0.47E-04 on Mesh   1 at (  76   1  20)
       Maximum Pressure Error:  0.64E+06 on Mesh   1 at (  21   1  25)
       ScaRC: iterations    11, residual  0.75E-08, convergence rate   0.10E+00
       ---------------------------------------------------------------
       Mesh    1
       Max CFL number:  0.88E-01 at (  20,   1,  24)
       Max divergence:  0.44E-11 at (  17,   1,  33)
       Min divergence: -0.31E-11 at (  21,   1,  26)
       Max VN number:   0.23E+00 at (  17,   1,  33)
       Mesh    2
       Max CFL number:  0.21E+00 at (  25,   1,  26)
       Max divergence:  0.11E-10 at (  25,   1,  17)
       Min divergence: -0.11E-10 at (  28,   1,  21)
       Max VN number:   0.23E+00 at (  28,   1,  20)
       Mesh    3
       Max CFL number:  0.62E-01 at (   1,   1,   5)
       Max divergence:  0.11E-11 at (   6,   1,  33)
       Min divergence: -0.55E-11 at (  11,   1,  36)
       Max VN number:   0.23E+00 at (   2,   1,  34)
       Mesh    4
       Max CFL number:  0.62E-01 at (   1,   1,   5)
       Max divergence:  0.61E-12 at (   8,   1,   4)
       Min divergence: -0.20E-11 at (  48,   1,  37)
       Max VN number:   0.23E+00 at (   1,   1,  35)
 
       Time Step       9   November 13, 2020  14:09:06
       Step Size:    0.395E-02 s, Total Time:       0.04 s
       Pressure Iterations:      1
       Maximum Velocity Error:  0.48E-04 on Mesh   1 at (  76   1  20)
       Maximum Pressure Error:  0.64E+06 on Mesh   1 at (  21   1  25)
       ScaRC: iterations    11, residual  0.76E-08, convergence rate   0.10E+00
       ---------------------------------------------------------------
       Mesh    1
       Max CFL number:  0.98E-01 at (  20,   1,  24)
       Max divergence:  0.46E-11 at (  75,   1,  22)
       Min divergence: -0.37E-11 at (  75,   1,   7)
       Max VN number:   0.23E+00 at (  17,   1,  33)
       Mesh    2
       Max CFL number:  0.23E+00 at (  25,   1,  26)
       Max divergence:  0.86E-11 at (  25,   1,  17)
       Min divergence: -0.82E-11 at (  28,   1,  20)
       Max VN number:   0.23E+00 at (   3,   1,  33)
       Mesh    3
       Max CFL number:  0.70E-01 at (   1,   1,   5)
       Max divergence:  0.13E-11 at (  75,   1,   3)
       Min divergence: -0.51E-11 at (  11,   1,  37)
       Max VN number:   0.23E+00 at (   4,   1,  33)
       Mesh    4
       Max CFL number:  0.70E-01 at (   1,   1,   5)
       Max divergence:  0.13E-11 at (   1,   1,   3)
       Min divergence: -0.20E-11 at (  48,   1,  37)
       Max VN number:   0.23E+00 at (   1,   1,  35)
 
       Time Step      10   November 13, 2020  14:09:07
       Step Size:    0.395E-02 s, Total Time:       0.04 s
       Pressure Iterations:      1
       Maximum Velocity Error:  0.48E-04 on Mesh   1 at (  76   1  20)
       Maximum Pressure Error:  0.64E+06 on Mesh   1 at (  21   1  25)
       ScaRC: iterations    11, residual  0.78E-08, convergence rate   0.10E+00
       ---------------------------------------------------------------
       Mesh    1
       Max CFL number:  0.11E+00 at (  20,   1,  24)
       Max divergence:  0.53E-11 at (  75,   1,   4)
       Min divergence: -0.26E-11 at (  73,   1,  31)
       Max VN number:   0.23E+00 at (  17,   1,  33)
       Mesh    2
       Max CFL number:  0.25E+00 at (  25,   1,  26)
       Max divergence:  0.67E-11 at (   1,   1,  32)
       Min divergence: -0.55E-11 at (  28,   1,  20)
       Max VN number:   0.23E+00 at (   4,   1,  34)
       Mesh    3
       Max CFL number:  0.78E-01 at (   1,   1,   5)
       Max divergence:  0.15E-11 at (   1,   1,  12)
       Min divergence: -0.54E-11 at (  11,   1,  36)
       Max VN number:   0.23E+00 at (   4,   1,  33)
       Mesh    4
       Max CFL number:  0.78E-01 at (   1,   1,   5)
       Max divergence:  0.13E-11 at (   1,   1,   4)
       Min divergence: -0.20E-11 at (  48,   1,  36)
       Max VN number:   0.23E+00 at (   1,   1,  39)
 
       Time Step      20   November 13, 2020  14:09:07
       Step Size:    0.395E-02 s, Total Time:       0.08 s
       Pressure Iterations:      1
       Maximum Velocity Error:  0.44E-04 on Mesh   1 at (  76   1  40)
       Maximum Pressure Error:  0.64E+06 on Mesh   1 at (  21   1  25)
       ScaRC: iterations    11, residual  0.38E-08, convergence rate   0.86E-01
       ---------------------------------------------------------------
       Mesh    1
       Max CFL number:  0.22E+00 at (  20,   1,  23)
       Max divergence:  0.46E-11 at (  75,   1,   7)
       Min divergence: -0.46E-11 at (  73,   1,  39)
       Max VN number:   0.23E+00 at (  34,   1,  33)
       Mesh    2
       Max CFL number:  0.49E+00 at (  25,   1,  27)
       Max divergence:  0.87E-11 at (  25,   1,  18)
       Min divergence: -0.76E-11 at (  25,   1,  25)
       Max VN number:   0.23E+00 at (  25,   1,  24)
       Mesh    3
       Max CFL number:  0.16E+00 at (   1,   1,   5)
       Max divergence:  0.43E-11 at (  13,   1,   1)
       Min divergence: -0.74E-11 at (  11,   1,  36)
       Max VN number:   0.23E+00 at (   5,   1,  33)
       Mesh    4
       Max CFL number:  0.16E+00 at (   1,   1,   5)
       Max divergence:  0.14E-11 at (  50,   1,   1)
       Min divergence: -0.28E-11 at (  48,   1,  28)
       Max VN number:   0.23E+00 at (   1,   1,  33)
 
       Time Step      30   November 13, 2020  14:09:08
       Step Size:    0.263E-02 s, Total Time:       0.11 s
       Pressure Iterations:      1
       Maximum Velocity Error:  0.50E-04 on Mesh   1 at (  76   1  20)
       Maximum Pressure Error:  0.64E+06 on Mesh   1 at (  21   1  25)
       ScaRC: iterations    12, residual  0.55E-09, convergence rate   0.94E-01
       ---------------------------------------------------------------
       Mesh    1
       Max CFL number:  0.21E+00 at (  20,   1,  23)
       Max divergence:  0.37E-11 at (  23,   1,  26)
       Min divergence: -0.53E-11 at (  73,   1,  39)
       Max VN number:   0.15E+00 at (  35,   1,  33)
       Mesh    2
       Max CFL number:  0.47E+00 at (  25,   1,  27)
       Max divergence:  0.12E-10 at (  25,   1,  19)
       Min divergence: -0.88E-11 at (  28,   1,  17)
       Max VN number:   0.15E+00 at (  17,   1,  33)
       Mesh    3
       Max CFL number:  0.14E+00 at (   1,   1,   5)
       Max divergence:  0.44E-11 at (  13,   1,   1)
       Min divergence: -0.71E-11 at (  11,   1,  12)
       Max VN number:   0.15E+00 at (   8,   1,  33)
       Mesh    4
       Max CFL number:  0.14E+00 at (   1,   1,   5)
       Max divergence:  0.17E-11 at (  50,   1,   1)
       Min divergence: -0.28E-11 at (  48,   1,   8)
       Max VN number:   0.15E+00 at (   2,   1,  33)
 
       Time Step      40   November 13, 2020  14:09:09
       Step Size:    0.205E-02 s, Total Time:       0.13 s
       Pressure Iterations:      1
       Maximum Velocity Error:  0.46E-04 on Mesh   1 at (  76   1  20)
       Maximum Pressure Error:  0.64E+06 on Mesh   1 at (  21   1  25)
       ScaRC: iterations    12, residual  0.69E-09, convergence rate   0.94E-01
       ---------------------------------------------------------------
       Mesh    1
       Max CFL number:  0.20E+00 at (  20,   1,  23)
       Max divergence:  0.31E-11 at (  24,   1,  37)
       Min divergence: -0.52E-11 at (  20,   1,  25)
       Max VN number:   0.12E+00 at (  36,   1,  33)
       Mesh    2
       Max CFL number:  0.46E+00 at (  25,   1,  27)
       Max divergence:  0.38E-11 at (   2,   1,  37)
       Min divergence: -0.66E-11 at (  26,   1,  26)
       Max VN number:   0.12E+00 at (  18,   1,  33)
       Mesh    3
       Max CFL number:  0.14E+00 at (   1,   1,   5)
       Max divergence:  0.36E-11 at (  13,   1,   1)
       Min divergence: -0.58E-11 at (  11,   1,   4)
       Max VN number:   0.12E+00 at (   9,   1,  33)
       Mesh    4
       Max CFL number:  0.14E+00 at (   1,   1,   5)
       Max divergence:  0.13E-11 at (  50,   1,   1)
       Min divergence: -0.24E-11 at (  48,   1,  17)
       Max VN number:   0.12E+00 at (   3,   1,  33)
 
       Time Step      50   November 13, 2020  14:09:09
       Step Size:    0.183E-02 s, Total Time:       0.15 s
       Pressure Iterations:      1
       Maximum Velocity Error:  0.48E-04 on Mesh   1 at (  76   1  20)
       Maximum Pressure Error:  0.64E+06 on Mesh   1 at (  21   1  25)
       ScaRC: iterations    12, residual  0.84E-09, convergence rate   0.94E-01
       ---------------------------------------------------------------
       Mesh    1
       Max CFL number:  0.21E+00 at (  20,   1,  23)
       Max divergence:  0.25E-11 at (  23,   1,  37)
       Min divergence: -0.71E-11 at (  20,   1,  25)
       Max VN number:   0.11E+00 at (  52,   1,  33)
       Mesh    2
       Max CFL number:  0.47E+00 at (  25,   1,  27)
       Max divergence:  0.42E-11 at (  28,   1,  21)
       Min divergence: -0.71E-11 at (  26,   1,  26)
       Max VN number:   0.11E+00 at (  19,   1,  33)
       Mesh    3
       Max CFL number:  0.14E+00 at (   1,   1,   5)
       Max divergence:  0.26E-11 at (  13,   1,   1)
       Min divergence: -0.48E-11 at (  11,   1,   8)
       Max VN number:   0.11E+00 at (  25,   1,  33)
       Mesh    4
       Max CFL number:  0.14E+00 at (   1,   1,   5)
       Max divergence:  0.10E-11 at (  50,   1,   1)
       Min divergence: -0.21E-11 at (  48,   1,   9)
       Max VN number:   0.11E+00 at (   6,   1,  33)
 
       Time Step      60   November 13, 2020  14:09:10
       Step Size:    0.164E-02 s, Total Time:       0.17 s
       Pressure Iterations:      1
       Maximum Velocity Error:  0.47E-04 on Mesh   1 at (  76   1   1)
       Maximum Pressure Error:  0.65E+06 on Mesh   1 at (  21   1  25)
       ScaRC: iterations    12, residual  0.10E-08, convergence rate   0.93E-01
       ---------------------------------------------------------------
       Mesh    1
       Max CFL number:  0.21E+00 at (  20,   1,  23)
       Max divergence:  0.24E-11 at (  23,   1,  24)
       Min divergence: -0.86E-11 at (  20,   1,  25)
       Max VN number:   0.95E-01 at (  71,   1,  33)
       Mesh    2
       Max CFL number:  0.46E+00 at (  25,   1,  27)
       Max divergence:  0.32E-11 at (   5,   1,  37)
       Min divergence: -0.67E-11 at (  26,   1,  15)
       Max VN number:   0.95E-01 at (  22,   1,  34)
       Mesh    3
       Max CFL number:  0.14E+00 at (   1,   1,   5)
       Max divergence:  0.24E-11 at (  13,   1,   1)
       Min divergence: -0.41E-11 at (  11,   1,  17)
       Max VN number:   0.95E-01 at (   1,   1,  33)
       Mesh    4
       Max CFL number:  0.14E+00 at (   1,   1,   5)
       Max divergence:  0.90E-12 at (  50,   1,   1)
       Min divergence: -0.19E-11 at (  48,   1,  17)
       Max VN number:   0.95E-01 at (   4,   1,  33)
 
       Time Step      70   November 13, 2020  14:09:11
       Step Size:    0.147E-02 s, Total Time:       0.19 s
       Pressure Iterations:      1
       Maximum Velocity Error:  0.48E-04 on Mesh   1 at (  76   1   1)
       Maximum Pressure Error:  0.65E+06 on Mesh   1 at (  21   1  25)
       ScaRC: iterations    12, residual  0.12E-08, convergence rate   0.94E-01
       ---------------------------------------------------------------
       Mesh    1
       Max CFL number:  0.20E+00 at (  20,   1,  25)
       Max divergence:  0.21E-11 at (  51,   1,   6)
       Min divergence: -0.91E-11 at (  20,   1,  25)
       Max VN number:   0.85E-01 at (  72,   1,  33)
       Mesh    2
       Max CFL number:  0.45E+00 at (  25,   1,  27)
       Max divergence:  0.32E-11 at (  29,   1,  15)
       Min divergence: -0.66E-11 at (  26,   1,  15)
       Max VN number:   0.85E-01 at (  23,   1,  34)
       Mesh    3
       Max CFL number:  0.14E+00 at (   1,   1,   5)
       Max divergence:  0.20E-11 at (  13,   1,   1)
       Min divergence: -0.37E-11 at (  11,   1,  39)
       Max VN number:   0.85E-01 at (   1,   1,  33)
       Mesh    4
       Max CFL number:  0.14E+00 at (   1,   1,   5)
       Max divergence:  0.84E-12 at (  50,   1,   1)
       Min divergence: -0.17E-11 at (  48,   1,  39)
       Max VN number:   0.85E-01 at (   6,   1,  33)
 
       Time Step      80   November 13, 2020  14:09:12
       Step Size:    0.147E-02 s, Total Time:       0.20 s
       Pressure Iterations:      1
       Maximum Velocity Error:  0.49E-04 on Mesh   1 at (  76   1  40)
       Maximum Pressure Error:  0.65E+06 on Mesh   1 at (  21   1  25)
       ScaRC: iterations    11, residual  0.71E-08, convergence rate   0.84E-01
       ---------------------------------------------------------------
       Mesh    1
       Max CFL number:  0.23E+00 at (  20,   1,  25)
       Max divergence:  0.20E-11 at (  23,   1,  24)
       Min divergence: -0.11E-10 at (  20,   1,  25)
       Max VN number:   0.85E-01 at (  72,   1,  33)
       Mesh    2
       Max CFL number:  0.48E+00 at (  25,   1,  27)
       Max divergence:  0.36E-11 at (  29,   1,  15)
       Min divergence: -0.86E-11 at (  25,   1,  25)
       Max VN number:   0.85E-01 at (  25,   1,  34)
       Mesh    3
       Max CFL number:  0.15E+00 at (   1,   1,   5)
       Max divergence:  0.20E-11 at (  13,   1,   1)
       Min divergence: -0.34E-11 at (  11,   1,  12)
       Max VN number:   0.85E-01 at (   1,   1,  33)
       Mesh    4
       Max CFL number:  0.15E+00 at (   1,   1,   5)
       Max divergence:  0.79E-12 at (  50,   1,   1)
       Min divergence: -0.18E-11 at (  48,   1,  25)
       Max VN number:   0.85E-01 at (   8,   1,  33)
 
       Time Step      90   November 13, 2020  14:09:14
       Step Size:    0.132E-02 s, Total Time:       0.21 s
       Pressure Iterations:      1
       Maximum Velocity Error:  0.49E-04 on Mesh   1 at (  76   1  40)
       Maximum Pressure Error:  0.65E+06 on Mesh   1 at (  21   1  25)
       ScaRC: iterations    11, residual  0.79E-08, convergence rate   0.84E-01
       ---------------------------------------------------------------
       Mesh    1
       Max CFL number:  0.22E+00 at (  20,   1,  25)
       Max divergence:  0.20E-11 at (  17,   1,  37)
       Min divergence: -0.11E-10 at (  20,   1,  25)
       Max VN number:   0.77E-01 at (  58,   1,  33)
       Mesh    2
       Max CFL number:  0.46E+00 at (  25,   1,  27)
       Max divergence:  0.35E-11 at (  29,   1,  15)
       Min divergence: -0.78E-11 at (  25,   1,  25)
       Max VN number:   0.77E-01 at (  26,   1,  34)
       Mesh    3
       Max CFL number:  0.14E+00 at (   1,   1,   5)
       Max divergence:  0.19E-11 at (  13,   1,   1)
       Min divergence: -0.29E-11 at (  11,   1,  25)
       Max VN number:   0.77E-01 at (   1,   1,  33)
       Mesh    4
       Max CFL number:  0.14E+00 at (   1,   1,   5)
       Max divergence:  0.83E-12 at (  50,   1,   1)
       Min divergence: -0.17E-11 at (  48,   1,   5)
       Max VN number:   0.77E-01 at (   8,   1,  33)
 
       Time Step     100   November 13, 2020  14:09:16
       Step Size:    0.132E-02 s, Total Time:       0.23 s
       Pressure Iterations:      1
       Maximum Velocity Error:  0.47E-04 on Mesh   1 at (  76   1  40)
       Maximum Pressure Error:  0.65E+06 on Mesh   1 at (  21   1  25)
       ScaRC: iterations    12, residual  0.63E-09, convergence rate   0.83E-01
       ---------------------------------------------------------------
       Mesh    1
       Max CFL number:  0.24E+00 at (  20,   1,  25)
       Max divergence:  0.20E-11 at (  23,   1,  26)
       Min divergence: -0.10E-10 at (  20,   1,  25)
       Max VN number:   0.77E-01 at (  26,   1,  33)
       Mesh    2
       Max CFL number:  0.48E+00 at (  25,   1,  27)
       Max divergence:  0.35E-11 at (  29,   1,  15)
       Min divergence: -0.85E-11 at (  25,   1,  25)
       Max VN number:   0.77E-01 at (  26,   1,  34)
       Mesh    3
       Max CFL number:  0.15E+00 at (   1,   1,   5)
       Max divergence:  0.17E-11 at (  13,   1,   1)
       Min divergence: -0.27E-11 at (  11,   1,  24)
       Max VN number:   0.77E-01 at (   1,   1,  33)
       Mesh    4
       Max CFL number:  0.15E+00 at (   1,   1,   5)
       Max divergence:  0.77E-12 at (  50,   1,   1)
       Min divergence: -0.17E-11 at (  48,   1,   4)
       Max VN number:   0.77E-01 at (   9,   1,  33)
 
       Time Step     200   November 13, 2020  14:09:26
       Step Size:    0.960E-03 s, Total Time:       0.34 s
       Pressure Iterations:      1
       Maximum Velocity Error:  0.41E-04 on Mesh   1 at (  76   1  40)
       Maximum Pressure Error:  0.66E+06 on Mesh   1 at (  21   1  25)
       ScaRC: iterations    12, residual  0.12E-08, convergence rate   0.83E-01
       ---------------------------------------------------------------
       Mesh    1
       Max CFL number:  0.27E+00 at (  20,   1,  25)
       Max divergence:  0.21E-11 at (  23,   1,  26)
       Min divergence: -0.62E-11 at (  21,   1,  26)
       Max VN number:   0.56E-01 at (  36,   1,  33)
       Mesh    2
       Max CFL number:  0.47E+00 at (  25,   1,  27)
       Max divergence:  0.30E-11 at (  29,   1,  14)
       Min divergence: -0.10E-10 at (  25,   1,  16)
       Max VN number:   0.56E-01 at (  48,   1,  31)
       Mesh    3
       Max CFL number:  0.16E+00 at (   1,   1,   5)
       Max divergence:  0.94E-12 at (  44,   1,   1)
       Min divergence: -0.28E-11 at (  11,   1,   3)
       Max VN number:   0.56E-01 at (   1,   1,  33)
       Mesh    4
       Max CFL number:  0.16E+00 at (   1,   1,   6)
       Max divergence:  0.66E-12 at (  50,   1,   1)
       Min divergence: -0.16E-11 at (  48,   1,  26)
       Max VN number:   0.56E-01 at (  24,   1,  33)
 
       Time Step     300   November 13, 2020  14:09:36
       Step Size:    0.775E-03 s, Total Time:       0.43 s
       Pressure Iterations:      1
       Maximum Velocity Error:  0.47E-04 on Mesh   1 at (  76   1  40)
       Maximum Pressure Error:  0.67E+06 on Mesh   1 at (  21   1  25)
       ScaRC: iterations    12, residual  0.17E-08, convergence rate   0.83E-01
       ---------------------------------------------------------------
       Mesh    1
       Max CFL number:  0.28E+00 at (  20,   1,  25)
       Max divergence:  0.18E-11 at (  23,   1,  26)
       Min divergence: -0.48E-11 at (  21,   1,  26)
       Max VN number:   0.45E-01 at (  52,   1,  33)
       Mesh    2
       Max CFL number:  0.45E+00 at (  25,   1,  27)
       Max divergence:  0.36E-11 at (  29,   1,  14)
       Min divergence: -0.10E-10 at (  25,   1,  16)
       Max VN number:   0.45E-01 at (  65,   1,  29)
       Mesh    3
       Max CFL number:  0.16E+00 at (   1,   1,   6)
       Max divergence:  0.80E-12 at (  13,   1,   1)
       Min divergence: -0.24E-11 at (  11,   1,   4)
       Max VN number:   0.45E-01 at (  10,   1,  32)
       Mesh    4
       Max CFL number:  0.16E+00 at (   1,   1,   6)
       Max divergence:  0.68E-12 at (  50,   1,   1)
       Min divergence: -0.17E-11 at (  48,   1,  39)
       Max VN number:   0.45E-01 at (  39,   1,  33)
 
       Time Step     400   November 13, 2020  14:09:45
       Step Size:    0.697E-03 s, Total Time:       0.50 s
       Pressure Iterations:      1
       Maximum Velocity Error:  0.39E-04 on Mesh   1 at (  76   1  40)
       Maximum Pressure Error:  0.67E+06 on Mesh   1 at (  21   1  25)
       ScaRC: iterations    12, residual  0.22E-08, convergence rate   0.83E-01
       ---------------------------------------------------------------
       Mesh    1
       Max CFL number:  0.29E+00 at (  20,   1,  25)
       Max divergence:  0.19E-11 at (  21,   1,  24)
       Min divergence: -0.49E-11 at (  21,   1,  26)
       Max VN number:   0.40E-01 at (  72,   1,  32)
       Mesh    2
       Max CFL number:  0.46E+00 at (  25,   1,  27)
       Max divergence:  0.41E-11 at (  29,   1,  14)
       Min divergence: -0.11E-10 at (  25,   1,  16)
       Max VN number:   0.40E-01 at (  75,   1,  24)
       Mesh    3
       Max CFL number:  0.17E+00 at (   1,   1,   5)
       Max divergence:  0.63E-12 at (  44,   1,   1)
       Min divergence: -0.23E-11 at (  11,   1,   4)
       Max VN number:   0.40E-01 at (   5,   1,  28)
       Mesh    4
       Max CFL number:  0.16E+00 at (   1,   1,   6)
       Max divergence:  0.67E-12 at (  50,   1,   1)
       Min divergence: -0.16E-11 at (  48,   1,  32)
       Max VN number:   0.40E-01 at (  55,   1,  33)
 
       Time Step     500   November 13, 2020  14:09:53
       Step Size:    0.627E-03 s, Total Time:       0.57 s
       Pressure Iterations:      1
       Maximum Velocity Error:  0.42E-04 on Mesh   1 at (  76   1  40)
       Maximum Pressure Error:  0.68E+06 on Mesh   1 at (  21   1  25)
       ScaRC: iterations    12, residual  0.27E-08, convergence rate   0.83E-01
       ---------------------------------------------------------------
       Mesh    1
       Max CFL number:  0.30E+00 at (  20,   1,  25)
       Max divergence:  0.14E-11 at (  21,   1,  24)
       Min divergence: -0.41E-11 at (  21,   1,  26)
       Max VN number:   0.36E-01 at (  75,   1,  25)
       Mesh    2
       Max CFL number:  0.46E+00 at (  25,   1,  14)
       Max divergence:  0.38E-11 at (  29,   1,  14)
       Min divergence: -0.12E-10 at (  25,   1,  25)
       Max VN number:   0.36E-01 at (  19,   1,  33)
       Mesh    3
       Max CFL number:  0.17E+00 at (   1,   1,   6)
       Max divergence:  0.67E-12 at (  62,   1,   1)
       Min divergence: -0.21E-11 at (  11,   1,  39)
       Max VN number:   0.36E-01 at (  22,   1,  28)
       Mesh    4
       Max CFL number:  0.16E+00 at (   1,   1,   6)
       Max divergence:  0.65E-12 at (  13,   1,  37)
       Min divergence: -0.17E-11 at (  48,   1,   8)
       Max VN number:   0.36E-01 at (  71,   1,  33)
 
       Time Step     600   November 13, 2020  14:10:02
       Step Size:    0.627E-03 s, Total Time:       0.63 s
       Pressure Iterations:      1
       Maximum Velocity Error:  0.50E-04 on Mesh   1 at (  76   1  40)
       Maximum Pressure Error:  0.68E+06 on Mesh   1 at (  21   1  25)
       ScaRC: iterations    12, residual  0.32E-08, convergence rate   0.83E-01
       ---------------------------------------------------------------
       Mesh    1
       Max CFL number:  0.32E+00 at (  20,   1,  25)
       Max divergence:  0.11E-11 at (  23,   1,  26)
       Min divergence: -0.38E-11 at (  21,   1,  26)
       Max VN number:   0.36E-01 at (  75,   1,  25)
       Mesh    2
       Max CFL number:  0.50E+00 at (  25,   1,  14)
       Max divergence:  0.30E-11 at (  29,   1,  14)
       Min divergence: -0.14E-10 at (  25,   1,  25)
       Max VN number:   0.36E-01 at (  60,   1,  32)
       Mesh    3
       Max CFL number:  0.20E+00 at (   1,   1,   7)
       Max divergence:  0.61E-12 at (  44,   1,   1)
       Min divergence: -0.20E-11 at (  11,   1,  39)
       Max VN number:   0.36E-01 at (  39,   1,  28)
       Mesh    4
       Max CFL number:  0.18E+00 at (   1,   1,   5)
       Max divergence:  0.79E-12 at (  50,   1,   1)
       Min divergence: -0.21E-11 at (  48,   1,  13)
       Max VN number:   0.36E-01 at (   1,   1,  32)
 
       Time Step     700   November 13, 2020  14:10:10
       Step Size:    0.564E-03 s, Total Time:       0.69 s
       Pressure Iterations:      1
       Maximum Velocity Error:  0.42E-04 on Mesh   3 at (  76   1   1)
       Maximum Pressure Error:  0.69E+06 on Mesh   1 at (  21   1  25)
       ScaRC: iterations    12, residual  0.70E-08, convergence rate   0.88E-01
       ---------------------------------------------------------------
       Mesh    1
       Max CFL number:  0.31E+00 at (  20,   1,  25)
       Max divergence:  0.93E-12 at (  23,   1,  31)
       Min divergence: -0.22E-11 at (  21,   1,  26)
       Max VN number:   0.33E-01 at (  72,   1,  25)
       Mesh    2
       Max CFL number:  0.48E+00 at (  25,   1,  14)
       Max divergence:  0.19E-11 at (  30,   1,  13)
       Min divergence: -0.12E-10 at (  25,   1,  23)
       Max VN number:   0.33E-01 at (  72,   1,  29)
       Mesh    3
       Max CFL number:  0.20E+00 at (   1,   1,   7)
       Max divergence:  0.49E-12 at (  62,   1,   1)
       Min divergence: -0.19E-11 at (  11,   1,   6)
       Max VN number:   0.33E-01 at (  53,   1,  25)
       Mesh    4
       Max CFL number:  0.17E+00 at (   1,   1,   8)
       Max divergence:  0.66E-12 at (  50,   1,   1)
       Min divergence: -0.18E-11 at (  48,   1,  12)
       Max VN number:   0.33E-01 at (   4,   1,  25)
 
       Time Step     800   November 13, 2020  14:10:19
       Step Size:    0.508E-03 s, Total Time:       0.75 s
       Pressure Iterations:      1
       Maximum Velocity Error:  0.42E-04 on Mesh   3 at (  76   1   1)
       Maximum Pressure Error:  0.70E+06 on Mesh   1 at (  21   1  25)
       ScaRC: iterations    12, residual  0.89E-08, convergence rate   0.88E-01
       ---------------------------------------------------------------
       Mesh    1
       Max CFL number:  0.30E+00 at (  20,   1,  25)
       Max divergence:  0.82E-12 at (  23,   1,  31)
       Min divergence: -0.22E-11 at (  21,   1,  26)
       Max VN number:   0.29E-01 at (  72,   1,  25)
       Mesh    2
       Max CFL number:  0.45E+00 at (  25,   1,  14)
       Max divergence:  0.33E-11 at (  28,   1,  14)
       Min divergence: -0.83E-11 at (  28,   1,  21)
       Max VN number:   0.29E-01 at (  75,   1,  18)
       Mesh    3
       Max CFL number:  0.22E+00 at (   1,   1,   9)
       Max divergence:  0.49E-12 at (  44,   1,   1)
       Min divergence: -0.18E-11 at (  11,   1,  14)
       Max VN number:   0.29E-01 at (  70,   1,  25)
       Mesh    4
       Max CFL number:  0.16E+00 at (   1,   1,  14)
       Max divergence:  0.61E-12 at (  50,   1,   1)
       Min divergence: -0.18E-11 at (  48,   1,  39)
       Max VN number:   0.29E-01 at (   1,   1,  29)
 
       Time Step     900   November 13, 2020  14:10:28
       Step Size:    0.508E-03 s, Total Time:       0.80 s
       Pressure Iterations:      1
       Maximum Velocity Error:  0.47E-04 on Mesh   3 at (  76   1   1)
       Maximum Pressure Error:  0.71E+06 on Mesh   1 at (  21   1  25)
       ScaRC: iterations    13, residual  0.13E-08, convergence rate   0.91E-01
       ---------------------------------------------------------------
       Mesh    1
       Max CFL number:  0.31E+00 at (  20,   1,  25)
       Max divergence:  0.97E-12 at (  23,   1,  10)
       Min divergence: -0.27E-11 at (  21,   1,  26)
       Max VN number:   0.29E-01 at (  72,   1,  25)
       Mesh    2
       Max CFL number:  0.47E+00 at (  25,   1,  14)
       Max divergence:  0.36E-11 at (  28,   1,  14)
       Min divergence: -0.98E-11 at (  27,   1,  15)
       Max VN number:   0.29E-01 at (  75,   1,  21)
       Mesh    3
       Max CFL number:  0.27E+00 at (   1,   1,  12)
       Max divergence:  0.61E-12 at (   6,   1,  17)
       Min divergence: -0.18E-11 at (  11,   1,  38)
       Max VN number:   0.29E-01 at (  24,   1,  13)
       Mesh    4
       Max CFL number:  0.17E+00 at (   1,   1,  15)
       Max divergence:  0.54E-12 at (  55,   1,   1)
       Min divergence: -0.22E-11 at (  48,   1,  33)
       Max VN number:   0.29E-01 at (  12,   1,  25)
 
       Time Step    1000   November 13, 2020  14:10:38
       Step Size:    0.508E-03 s, Total Time:       0.85 s
       Pressure Iterations:      1
       Maximum Velocity Error:  0.47E-04 on Mesh   2 at (  76   1   1)
       Maximum Pressure Error:  0.63E+06 on Mesh   1 at (  21   1  25)
       ScaRC: iterations    12, residual  0.87E-08, convergence rate   0.88E-01
       ---------------------------------------------------------------
       Mesh    1
       Max CFL number:  0.33E+00 at (  20,   1,  25)
       Max divergence:  0.94E-12 at (  16,   1,  25)
       Min divergence: -0.29E-11 at (  21,   1,  26)
       Max VN number:   0.29E-01 at (  72,   1,  25)
       Mesh    2
       Max CFL number:  0.49E+00 at (  25,   1,  14)
       Max divergence:  0.40E-11 at (  28,   1,  14)
       Min divergence: -0.92E-11 at (  27,   1,  15)
       Max VN number:   0.29E-01 at (  36,   1,  21)
       Mesh    3
       Max CFL number:  0.33E+00 at (   1,   1,  11)
       Max divergence:  0.96E-12 at (   5,   1,  19)
       Min divergence: -0.20E-11 at (  11,   1,  21)
       Max VN number:   0.29E-01 at (  41,   1,  16)
       Mesh    4
       Max CFL number:  0.18E+00 at (   1,   1,  15)
       Max divergence:  0.11E-11 at (  75,   1,  28)
       Min divergence: -0.22E-11 at (  48,   1,   7)
       Max VN number:   0.29E-01 at (  29,   1,  25)
 
       Time Step    1100   November 13, 2020  14:10:51
       Step Size:    0.457E-03 s, Total Time:       0.90 s
       Pressure Iterations:      1
       Maximum Velocity Error:  0.49E-04 on Mesh   3 at (  76   1   1)
       Maximum Pressure Error:  0.72E+06 on Mesh   1 at (  21   1  25)
       ScaRC: iterations    13, residual  0.16E-08, convergence rate   0.92E-01
       ---------------------------------------------------------------
       Mesh    1
       Max CFL number:  0.31E+00 at (  20,   1,  25)
       Max divergence:  0.85E-12 at (  39,   1,  31)
       Min divergence: -0.29E-11 at (  21,   1,  26)
       Max VN number:   0.27E-01 at (  72,   1,  25)
       Mesh    2
       Max CFL number:  0.46E+00 at (  25,   1,  14)
       Max divergence:  0.42E-11 at (  28,   1,  14)
       Min divergence: -0.11E-10 at (  27,   1,  15)
       Max VN number:   0.27E-01 at (  31,   1,  21)
       Mesh    3
       Max CFL number:  0.34E+00 at (   1,   1,  10)
       Max divergence:  0.75E-12 at (   3,   1,  19)
       Min divergence: -0.19E-11 at (  11,   1,  40)
       Max VN number:   0.27E-01 at (  57,   1,  16)
       Mesh    4
       Max CFL number:  0.17E+00 at (   1,   1,  15)
       Max divergence:  0.70E-12 at (  51,   1,   1)
       Min divergence: -0.22E-11 at (  48,   1,  24)
       Max VN number:   0.27E-01 at (  44,   1,  25)
 
       Time Step    1200   November 13, 2020  14:11:10
       Step Size:    0.457E-03 s, Total Time:       0.94 s
       Pressure Iterations:      1
       Maximum Velocity Error:  0.48E-04 on Mesh   2 at (  76   1   1)
       Maximum Pressure Error:  0.63E+06 on Mesh   1 at (  21   1  25)
       ScaRC: iterations    13, residual  0.53E-09, convergence rate   0.85E-01
       ---------------------------------------------------------------
       Mesh    1
       Max CFL number:  0.32E+00 at (  20,   1,  25)
       Max divergence:  0.86E-12 at (  16,   1,  11)
       Min divergence: -0.29E-11 at (  21,   1,  26)
       Max VN number:   0.27E-01 at (  72,   1,  25)
       Mesh    2
       Max CFL number:  0.47E+00 at (  25,   1,  14)
       Max divergence:  0.40E-11 at (  28,   1,  14)
       Min divergence: -0.10E-10 at (  27,   1,  15)
       Max VN number:   0.27E-01 at (  31,   1,  25)
       Mesh    3
       Max CFL number:  0.35E+00 at (   1,   1,   9)
       Max divergence:  0.63E-12 at (  44,   1,  16)
       Min divergence: -0.17E-11 at (  11,   1,  40)
       Max VN number:   0.27E-01 at (  74,   1,  16)
       Mesh    4
       Max CFL number:  0.17E+00 at (   1,   1,  15)
       Max divergence:  0.72E-12 at (  52,   1,   1)
       Min divergence: -0.23E-11 at (  48,   1,   8)
       Max VN number:   0.27E-01 at (  61,   1,  25)
 
       Time Step    1300   November 13, 2020  14:11:37
       Step Size:    0.457E-03 s, Total Time:       0.99 s
       Pressure Iterations:      1
       Maximum Velocity Error:  0.11E-03 on Mesh   3 at (  76   1  40)
       Maximum Pressure Error:  0.58E+06 on Mesh   1 at (  21   1  25)
       ScaRC: iterations    12, residual  0.71E-08, convergence rate   0.88E-01
       ---------------------------------------------------------------
       Mesh    1
       Max CFL number:  0.33E+00 at (  20,   1,  25)
       Max divergence:  0.84E-12 at (  23,   1,  32)
       Min divergence: -0.17E-11 at (  21,   1,  26)
       Max VN number:   0.27E-01 at (  72,   1,  25)
       Mesh    2
       Max CFL number:  0.49E+00 at (  25,   1,  14)
       Max divergence:  0.37E-11 at (  28,   1,  14)
       Min divergence: -0.10E-10 at (  27,   1,  15)
       Max VN number:   0.27E-01 at (  37,   1,  27)
       Mesh    3
       Max CFL number:  0.37E+00 at (   1,   1,   8)
       Max divergence:  0.92E-12 at (  12,   1,  22)
       Min divergence: -0.21E-11 at (  11,   1,  38)
       Max VN number:   0.27E-01 at (  75,   1,  21)
       Mesh    4
       Max CFL number:  0.18E+00 at (   1,   1,  15)
       Max divergence:  0.73E-12 at (  52,   1,   1)
       Min divergence: -0.23E-11 at (  48,   1,  39)
       Max VN number:   0.27E-01 at (  75,   1,  24)
 
       Time Step    1400   November 13, 2020  14:12:07
       Step Size:    0.411E-03 s, Total Time:       1.03 s
       Pressure Iterations:      1
       Maximum Velocity Error:  0.48E-04 on Mesh   2 at (  76   1   1)
       Maximum Pressure Error:  0.63E+06 on Mesh   1 at (  21   1  25)
       ScaRC: iterations    13, residual  0.55E-09, convergence rate   0.84E-01
       ---------------------------------------------------------------
       Mesh    1
       Max CFL number:  0.30E+00 at (  20,   1,  25)
       Max divergence:  0.94E-12 at (  21,   1,  24)
       Min divergence: -0.29E-11 at (  21,   1,  26)
       Max VN number:   0.24E-01 at (  72,   1,  25)
       Mesh    2
       Max CFL number:  0.45E+00 at (  25,   1,  14)
       Max divergence:  0.31E-11 at (  28,   1,  14)
       Min divergence: -0.82E-11 at (  27,   1,  15)
       Max VN number:   0.24E-01 at (  73,   1,  16)
       Mesh    3
       Max CFL number:  0.35E+00 at (   5,   1,   8)
       Max divergence:  0.16E-11 at (  12,   1,  23)
       Min divergence: -0.20E-11 at (  11,   1,  39)
       Max VN number:   0.24E-01 at (  75,   1,  21)
       Mesh    4
       Max CFL number:  0.16E+00 at (   1,   1,  35)
       Max divergence:  0.59E-12 at (  51,   1,   1)
       Min divergence: -0.22E-11 at (  48,   1,   5)
       Max VN number:   0.24E-01 at (  47,   1,  24)
 
       Time Step    1500   November 13, 2020  14:12:33
       Step Size:    0.411E-03 s, Total Time:       1.07 s
       Pressure Iterations:      1
       Maximum Velocity Error:  0.11E-03 on Mesh   3 at (  76   1  40)
       Maximum Pressure Error:  0.67E+06 on Mesh   1 at (  21   1  25)
       ScaRC: iterations    12, residual  0.73E-08, convergence rate   0.87E-01
       ---------------------------------------------------------------
       Mesh    1
       Max CFL number:  0.31E+00 at (  20,   1,  25)
       Max divergence:  0.99E-12 at (  31,   1,  30)
       Min divergence: -0.20E-11 at (  21,   1,  26)
       Max VN number:   0.24E-01 at (  72,   1,  25)
       Mesh    2
       Max CFL number:  0.46E+00 at (  25,   1,  14)
       Max divergence:  0.26E-11 at (  28,   1,  14)
       Min divergence: -0.82E-11 at (  27,   1,  15)
       Max VN number:   0.24E-01 at (  74,   1,  15)
       Mesh    3
       Max CFL number:  0.36E+00 at (  15,   1,   9)
       Max divergence:  0.23E-11 at (  11,   1,  15)
       Min divergence: -0.26E-11 at (  11,   1,  40)
       Max VN number:   0.24E-01 at (  12,   1,  16)
       Mesh    4
       Max CFL number:  0.17E+00 at (   1,   1,  15)
       Max divergence:  0.51E-12 at (  51,   1,   1)
       Min divergence: -0.24E-11 at (  49,   1,   9)
       Max VN number:   0.24E-01 at (  75,   1,  24)
 
       Time Step    1600   November 13, 2020  14:13:05
       Step Size:    0.411E-03 s, Total Time:       1.11 s
       Pressure Iterations:      1
       Maximum Velocity Error:  0.12E-03 on Mesh   3 at (  76   1  40)
       Maximum Pressure Error:  0.58E+06 on Mesh   1 at (  21   1  25)
       ScaRC: iterations    12, residual  0.88E-08, convergence rate   0.88E-01
       ---------------------------------------------------------------
       Mesh    1
       Max CFL number:  0.31E+00 at (  20,   1,  25)
       Max divergence:  0.13E-11 at (  21,   1,  24)
       Min divergence: -0.31E-11 at (  21,   1,  26)
       Max VN number:   0.24E-01 at (  72,   1,  25)
       Mesh    2
       Max CFL number:  0.47E+00 at (  25,   1,  14)
       Max divergence:  0.29E-11 at (  73,   1,  27)
       Min divergence: -0.68E-11 at (  27,   1,  15)
       Max VN number:   0.24E-01 at (  73,   1,  25)
       Mesh    3
       Max CFL number:  0.38E+00 at (   8,   1,  34)
       Max divergence:  0.28E-11 at (  11,   1,  26)
       Min divergence: -0.24E-11 at (  11,   1,   2)
       Max VN number:   0.24E-01 at (  12,   1,  15)
       Mesh    4
       Max CFL number:  0.18E+00 at (   1,   1,  15)
       Max divergence:  0.53E-12 at (  50,   1,   1)
       Min divergence: -0.22E-11 at (  48,   1,   4)
       Max VN number:   0.24E-01 at (  75,   1,  17)
 
       Time Step    1700   November 13, 2020  14:13:37
       Step Size:    0.411E-03 s, Total Time:       1.15 s
       Pressure Iterations:      1
       Maximum Velocity Error:  0.12E-03 on Mesh   3 at (  76   1  40)
       Maximum Pressure Error:  0.58E+06 on Mesh   1 at (  21   1  25)
       ScaRC: iterations    12, residual  0.67E-08, convergence rate   0.86E-01
       ---------------------------------------------------------------
       Mesh    1
       Max CFL number:  0.32E+00 at (  20,   1,  25)
       Max divergence:  0.81E-12 at (  12,   1,  18)
       Min divergence: -0.16E-11 at (  20,   1,  25)
       Max VN number:   0.24E-01 at (  72,   1,  25)
       Mesh    2
       Max CFL number:  0.48E+00 at (  25,   1,  14)
       Max divergence:  0.36E-11 at (  73,   1,  15)
       Min divergence: -0.61E-11 at (  27,   1,  15)
       Max VN number:   0.24E-01 at (  73,   1,  26)
       Mesh    3
       Max CFL number:  0.41E+00 at (   1,   1,   8)
       Max divergence:  0.31E-11 at (  12,   1,  24)
       Min divergence: -0.34E-11 at (  11,   1,  39)
       Max VN number:   0.24E-01 at (  12,   1,  26)
       Mesh    4
       Max CFL number:  0.18E+00 at (  10,   1,  14)
       Max divergence:  0.59E-12 at (  50,   1,   1)
       Min divergence: -0.23E-11 at (  48,   1,  39)
       Max VN number:   0.24E-01 at (  75,   1,  24)
 
       Time Step    1800   November 13, 2020  14:14:09
       Step Size:    0.411E-03 s, Total Time:       1.20 s
       Pressure Iterations:      1
       Maximum Velocity Error:  0.13E-03 on Mesh   3 at (  76   1   1)
       Maximum Pressure Error:  0.58E+06 on Mesh   1 at (  21   1  25)
       ScaRC: iterations    12, residual  0.51E-08, convergence rate   0.84E-01
       ---------------------------------------------------------------
       Mesh    1
       Max CFL number:  0.32E+00 at (  20,   1,  25)
       Max divergence:  0.86E-12 at (  16,   1,  31)
       Min divergence: -0.17E-11 at (  20,   1,  25)
       Max VN number:   0.24E-01 at (  72,   1,  25)
       Mesh    2
       Max CFL number:  0.49E+00 at (  25,   1,  14)
       Max divergence:  0.20E-11 at (  73,   1,  25)
       Min divergence: -0.55E-11 at (  25,   1,  23)
       Max VN number:   0.24E-01 at (  74,   1,  14)
       Mesh    3
       Max CFL number:  0.46E+00 at (  13,   1,   8)
       Max divergence:  0.38E-11 at (  11,   1,  18)
       Min divergence: -0.34E-11 at (  11,   1,   2)
       Max VN number:   0.24E-01 at (  27,   1,  30)
       Mesh    4
       Max CFL number:  0.21E+00 at (   1,   1,  32)
       Max divergence:  0.64E-12 at (  50,   1,   1)
       Min divergence: -0.24E-11 at (  48,   1,  39)
       Max VN number:   0.24E-01 at (  75,   1,  22)
 
