
 Fire Dynamics Simulator

 Current Date     : October 28, 2020  13:53:10
 Revision         : -dirty-master
 Revision Date    : Wed Oct 28 10:57:14 2020 +0100
 Compiler         : Intel ifort 18.0.1
 Compilation Date : Oct 28, 2020 12:21:14

 MPI Enabled;    Number of MPI Processes:       4
 OpenMP Enabled; Number of OpenMP Threads:      4

 MPI version: 3.1
 MPI library version: Intel(R) MPI Library 2018 Update 1 for Linux* OS


 Job TITLE        : Simple 2D Tunnel test of unstructured ScaRC solver
 Job ID string    : dancing_eddies_uscarc


 Grid Dimensions, Mesh     1

   Cells in the X Direction            75
   Cells in the Y Direction             1
   Cells in the Z Direction            40
   Number of Grid Cells              3000


 Physical Dimensions, Mesh     1

   Length (m)                       0.075
   Width  (m)                       0.002
   Height (m)                       0.040
   Initial Time Step (s)            0.004

 Grid Dimensions, Mesh     2

   Cells in the X Direction            75
   Cells in the Y Direction             1
   Cells in the Z Direction            40
   Number of Grid Cells              3000


 Physical Dimensions, Mesh     2

   Length (m)                       0.075
   Width  (m)                       0.002
   Height (m)                       0.040
   Initial Time Step (s)            0.004

 Grid Dimensions, Mesh     3

   Cells in the X Direction            75
   Cells in the Y Direction             1
   Cells in the Z Direction            40
   Number of Grid Cells              3000


 Physical Dimensions, Mesh     3

   Length (m)                       0.075
   Width  (m)                       0.002
   Height (m)                       0.040
   Initial Time Step (s)            0.004

 Grid Dimensions, Mesh     4

   Cells in the X Direction            75
   Cells in the Y Direction             1
   Cells in the Z Direction            40
   Number of Grid Cells              3000


 Physical Dimensions, Mesh     4

   Length (m)                       0.075
   Width  (m)                       0.002
   Height (m)                       0.040
   Initial Time Step (s)            0.004

Total Number of Grid Cells         12000


 Miscellaneous Parameters

   Simulation Start Time (s)          0.0
   Simulation End Time (s)            2.0
   Ambient Temperature (C):         20.00


 Mass Fraction Transformation Matrix to Convert Species Mixtures (Columns) to Primitive Species (Rows)

                         AIR     
   AIR                   1.000000


 Primitive Species Information

   AIR
   Gas Species
   Molecular Weight (g/mol)            28.01340
   Ambient Density (kg/m^3)            1.165
   Enthalpy of Formation (J/kg)        0.00E+00


 Tracked (Lumped) Species Information

   AIR
   Molecular Weight (g/mol)            28.01340
   Ambient Density (kg/m^3)            1.165
   Initial Mass Fraction               1.000
   Enthalpy of Formation (J/kg)      0.00E+00

   Sub Species                    Mass Fraction     Mole Fraction
   AIR                            1.000000E+00      1.000000E+00
 
     Viscosity (kg/m/s) Ambient,  293 K:  1.20E-05
                                  500 K:  1.20E-05
                                 1000 K:  1.20E-05
                                 1500 K:  1.20E-05
   Therm. Cond. (W/m/K) Ambient,  293 K:  1.76E-02
                                  500 K:  1.76E-02
                                 1000 K:  1.76E-02
                                 1500 K:  1.76E-02
        Enthalpy (J/kg) Ambient,  293 K:  3.05E+05
                                  500 K:  5.19E+05
                                 1000 K:  1.04E+06
                                 1500 K:  1.56E+06
    Spec. Heat (J/kg/K) Ambient,  293 K:  1.04E+03
                                  500 K:  1.04E+03
                                 1000 K:  1.04E+03
                                 1500 K:  1.04E+03
   Diff. Coeff. (m^2/s) Ambient,  293 K:  1.99E-05
                                  500 K:  4.93E-05
                                 1000 K:  1.57E-04
                                 1500 K:  3.07E-04


 Material Information


 Surface Conditions

   0 INERT

   1 WALL (DEFAULT)

   2 PLATE

   3 BLOW
     Normal Velocity (m/s)        -0.500
     AIR Mass Fraction         1.000

   4 OPEN
     Passive Vent to Atmosphere

   5 MIRROR
     Symmetry Plane

   6 INTERPOLATED

   7 PERIODIC

   8 HVAC

   9 MASSLESS TRACER

  10 DROPLET

  11 EVACUATION_OUTFLOW
     Normal Velocity (m/s)         0.000

  12 MASSLESS TARGET

  13 PERIODIC FLOW ONLY


 Cut-off Density and Temperature

    Minimum Temperature:   -10.0 C
    Maximum Temperature:  2726.8 C
    Minimum Density:  1.165E-01 kg/m3
    Maximum Density:  2.595E+00 kg/m3


 Device Coordinates

     1 Coords:      0.200000      0.000000      0.000000, Make: null, ID: pres, Quantity: PRESSURE
     2 Coords:      0.000010      0.000000      0.000000, Make: null, ID: error, Quantity: MAXIMUM VELOCITY ERROR
     3 Coords:      0.000010      0.000000      0.000000, Make: null, ID: iter, Quantity: PRESSURE ITERATIONS
     4 Coords:      0.000010      0.000000      0.000000, Make: null, ID: cpu, Quantity: CPU TIME
     5 Coords:      0.000010      0.000000      0.000000, Make: null, ID: SCARC_ITE, Quantity: SCARC ITERATIONS
     6 Coords:      0.000010      0.000000      0.000000, Make: null, ID: SCARC_RES, Quantity: SCARC RESIDUAL
     7 Coords:      0.000010      0.000000      0.000000, Make: null, ID: SCARC_CONV, Quantity: SCARC CONVERGENCE RATE


 Slice File Information, Mesh     1

   Sampling Interval (s)             0.002

   1 Nodes:   0  75   1   1   0  40, Quantity: VELOCITY
   2 Nodes:   0  75   1   1   0  40, Quantity: U-VELOCITY
   3 Nodes:   0  75   1   1   0  40, Quantity: W-VELOCITY
   4 Nodes:   0  75   1   1   0  40, Quantity: H
   5 Nodes:   0  75   1   1   0  40, Quantity: PRESSURE


 Radiation Model Information

   Number of control angles   60
   Time step increment         2
   Angle increment             4
   Phi band   N_theta Solid angle
     1:       60     0.209


 USCARC Information

   Discretization             STRUCTURED
   Global solver                  KRYLOV
   Storage technique             COMPACT
   Preconditioner                PARDISO
   MKL precision                  DOUBLE
   Max iterations                   1000
   Stopping accuracy            0.10E-07
 
 

 Run Time Diagnostics

       Time Step       1   October 28, 2020  13:53:10
       Step Size:    0.395E-02 s, Total Time:      0.004 s
       Pressure Iterations:      1
       Maximum Velocity Error:  0.00E+00 on Mesh   1 at (   0   0   0)
       Maximum Pressure Error:  0.57E+06 on Mesh   1 at (  21   1  25)
       ScaRC: iterations    38, residual  0.96E-08, convergence rate   0.50E+00
       ---------------------------------------------------------------
       Mesh    1
       Max CFL number:  0.12E-01 at (  20,   1,  24)
       Max divergence:  0.60E-11 at (  75,   1,   7)
       Min divergence: -0.74E-11 at (  73,   1,   1)
       Max VN number:   0.23E+00 at (  75,   1,  40)
       Mesh    2
       Max CFL number:  0.31E-01 at (  28,   1,  15)
       Max divergence:  0.66E-11 at (   1,   1,   3)
       Min divergence: -0.81E-11 at (  73,   1,   1)
       Max VN number:   0.23E+00 at (  75,   1,  40)
       Mesh    3
       Max CFL number:  0.78E-02 at (   1,   1,   5)
       Max divergence:  0.26E-11 at (   1,   1,  26)
       Min divergence: -0.92E-11 at (  11,   1,   1)
       Max VN number:   0.23E+00 at (  75,   1,  40)
       Mesh    4
       Max CFL number:  0.78E-02 at (   1,   1,   5)
       Max divergence:  0.17E-11 at (   1,   1,   4)
       Min divergence: -0.33E-11 at (  48,   1,   1)
       Max VN number:   0.23E+00 at (  75,   1,  40)
 
       Time Step       2   October 28, 2020  13:53:11
       Step Size:    0.395E-02 s, Total Time:      0.008 s
       Pressure Iterations:      1
       Maximum Velocity Error:  0.00E+00 on Mesh   1 at (   0   0   0)
       Maximum Pressure Error:  0.57E+06 on Mesh   1 at (  21   1  25)
       ScaRC: iterations    39, residual  0.90E-08, convergence rate   0.51E+00
       ---------------------------------------------------------------
       Mesh    1
       Max CFL number:  0.24E-01 at (  20,   1,  24)
       Max divergence:  0.49E-11 at (  18,   1,  12)
       Min divergence: -0.60E-11 at (  74,   1,  37)
       Max VN number:   0.23E+00 at (  75,   1,   7)
       Mesh    2
       Max CFL number:  0.59E-01 at (  25,   1,  26)
       Max divergence:  0.64E-11 at (   1,   1,   4)
       Min divergence: -0.70E-11 at (  74,   1,  37)
       Max VN number:   0.23E+00 at (   1,   1,   3)
       Mesh    3
       Max CFL number:  0.16E-01 at (   1,   1,   5)
       Max divergence:  0.15E-11 at (  75,   1,  40)
       Min divergence: -0.79E-11 at (  11,   1,  37)
       Max VN number:   0.23E+00 at (   1,   1,  26)
       Mesh    4
       Max CFL number:  0.16E-01 at (   1,   1,   5)
       Max divergence:  0.14E-11 at (   1,   1,  17)
       Min divergence: -0.30E-11 at (  48,   1,  37)
       Max VN number:   0.23E+00 at (   1,   1,   4)
 
       Time Step       3   October 28, 2020  13:53:11
       Step Size:    0.395E-02 s, Total Time:       0.01 s
       Pressure Iterations:      1
       Maximum Velocity Error:  0.00E+00 on Mesh   1 at (   0   0   0)
       Maximum Pressure Error:  0.57E+06 on Mesh   1 at (  21   1  25)
       ScaRC: iterations    39, residual  0.75E-08, convergence rate   0.50E+00
       ---------------------------------------------------------------
       Mesh    1
       Max CFL number:  0.35E-01 at (  20,   1,  24)
       Max divergence:  0.46E-11 at (  24,   1,  25)
       Min divergence: -0.53E-11 at (  74,   1,  37)
       Max VN number:   0.23E+00 at (  24,   1,  40)
       Mesh    2
       Max CFL number:  0.86E-01 at (  25,   1,  26)
       Max divergence:  0.69E-11 at (   1,   1,  36)
       Min divergence: -0.65E-11 at (  74,   1,  37)
       Max VN number:   0.23E+00 at (   1,   1,  24)
       Mesh    3
       Max CFL number:  0.23E-01 at (   1,   1,   5)
       Max divergence:  0.12E-11 at (   1,   1,  31)
       Min divergence: -0.74E-11 at (  11,   1,  37)
       Max VN number:   0.23E+00 at (   1,   1,  17)
       Mesh    4
       Max CFL number:  0.23E-01 at (   1,   1,   5)
       Max divergence:  0.88E-12 at (   1,   1,  17)
       Min divergence: -0.27E-11 at (  48,   1,  37)
       Max VN number:   0.23E+00 at (   1,   1,  12)
 
       Time Step       4   October 28, 2020  13:53:11
       Step Size:    0.395E-02 s, Total Time:       0.02 s
       Pressure Iterations:      1
       Maximum Velocity Error:  0.00E+00 on Mesh   1 at (   0   0   0)
       Maximum Pressure Error:  0.57E+06 on Mesh   1 at (  21   1  25)
       ScaRC: iterations    40, residual  0.38E-08, convergence rate   0.50E+00
       ---------------------------------------------------------------
       Mesh    1
       Max CFL number:  0.46E-01 at (  20,   1,  24)
       Max divergence:  0.45E-11 at (  47,   1,   4)
       Min divergence: -0.46E-11 at (  73,   1,  37)
       Max VN number:   0.23E+00 at (  32,   1,   5)
       Mesh    2
       Max CFL number:  0.11E+00 at (  25,   1,  26)
       Max divergence:  0.46E-11 at (   2,   1,  24)
       Min divergence: -0.59E-11 at (  73,   1,  37)
       Max VN number:   0.23E+00 at (   1,   1,  12)
       Mesh    3
       Max CFL number:  0.31E-01 at (   1,   1,   5)
       Max divergence:  0.15E-11 at (   8,   1,  33)
       Min divergence: -0.68E-11 at (  11,   1,  37)
       Max VN number:   0.23E+00 at (   1,   1,  17)
       Mesh    4
       Max CFL number:  0.31E-01 at (   1,   1,   5)
       Max divergence:  0.81E-12 at (   1,   1,   4)
       Min divergence: -0.25E-11 at (  48,   1,  37)
       Max VN number:   0.23E+00 at (   1,   1,  17)
 
       Time Step       5   October 28, 2020  13:53:11
       Step Size:    0.395E-02 s, Total Time:       0.02 s
       Pressure Iterations:      1
       Maximum Velocity Error:  0.00E+00 on Mesh   1 at (   0   0   0)
       Maximum Pressure Error:  0.57E+06 on Mesh   1 at (  21   1  25)
       ScaRC: iterations    40, residual  0.36E-08, convergence rate   0.50E+00
       ---------------------------------------------------------------
       Mesh    1
       Max CFL number:  0.57E-01 at (  20,   1,  24)
       Max divergence:  0.48E-11 at (  17,   1,   4)
       Min divergence: -0.44E-11 at (  74,   1,  37)
       Max VN number:   0.23E+00 at (  17,   1,   5)
       Mesh    2
       Max CFL number:  0.14E+00 at (  25,   1,  26)
       Max divergence:  0.46E-11 at (  15,   1,  33)
       Min divergence: -0.52E-11 at (  74,   1,  37)
       Max VN number:   0.23E+00 at (   2,   1,  34)
       Mesh    3
       Max CFL number:  0.39E-01 at (   1,   1,   5)
       Max divergence:  0.10E-11 at (   4,   1,   4)
       Min divergence: -0.62E-11 at (  11,   1,  37)
       Max VN number:   0.23E+00 at (   1,   1,  17)
       Mesh    4
       Max CFL number:  0.39E-01 at (   1,   1,   5)
       Max divergence:  0.86E-12 at (   1,   1,   4)
       Min divergence: -0.24E-11 at (  48,   1,  37)
       Max VN number:   0.23E+00 at (   1,   1,  40)
 
       Time Step       6   October 28, 2020  13:53:11
       Step Size:    0.395E-02 s, Total Time:       0.02 s
       Pressure Iterations:      1
       Maximum Velocity Error:  0.00E+00 on Mesh   1 at (   0   0   0)
       Maximum Pressure Error:  0.57E+06 on Mesh   1 at (  21   1  25)
       ScaRC: iterations    40, residual  0.33E-08, convergence rate   0.50E+00
       ---------------------------------------------------------------
       Mesh    1
       Max CFL number:  0.67E-01 at (  20,   1,  24)
       Max divergence:  0.46E-11 at (  41,   1,   4)
       Min divergence: -0.39E-11 at (  74,   1,  37)
       Max VN number:   0.23E+00 at (  17,   1,  33)
       Mesh    2
       Max CFL number:  0.16E+00 at (  25,   1,  26)
       Max divergence:  0.47E-11 at (   5,   1,  33)
       Min divergence: -0.47E-11 at (  73,   1,  37)
       Max VN number:   0.23E+00 at (   3,   1,  33)
       Mesh    3
       Max CFL number:  0.47E-01 at (   1,   1,   5)
       Max divergence:  0.11E-11 at (  19,   1,  34)
       Min divergence: -0.59E-11 at (  11,   1,  37)
       Max VN number:   0.23E+00 at (   4,   1,  33)
       Mesh    4
       Max CFL number:  0.47E-01 at (   1,   1,   5)
       Max divergence:  0.96E-12 at (   1,   1,  34)
       Min divergence: -0.22E-11 at (  48,   1,  37)
       Max VN number:   0.23E+00 at (   1,   1,  39)
 
       Time Step       7   October 28, 2020  13:53:11
       Step Size:    0.395E-02 s, Total Time:       0.03 s
       Pressure Iterations:      1
       Maximum Velocity Error:  0.00E+00 on Mesh   1 at (   0   0   0)
       Maximum Pressure Error:  0.57E+06 on Mesh   1 at (  21   1  25)
       ScaRC: iterations    40, residual  0.35E-08, convergence rate   0.50E+00
       ---------------------------------------------------------------
       Mesh    1
       Max CFL number:  0.77E-01 at (  20,   1,  24)
       Max divergence:  0.47E-11 at (  17,   1,  32)
       Min divergence: -0.33E-11 at (  74,   1,  37)
       Max VN number:   0.23E+00 at (  24,   1,  33)
       Mesh    2
       Max CFL number:  0.19E+00 at (  25,   1,  26)
       Max divergence:  0.44E-11 at (  14,   1,  34)
       Min divergence: -0.44E-11 at (  73,   1,  37)
       Max VN number:   0.23E+00 at (   3,   1,  33)
       Mesh    3
       Max CFL number:  0.55E-01 at (   1,   1,   5)
       Max divergence:  0.11E-11 at (  24,   1,   4)
       Min divergence: -0.58E-11 at (  11,   1,  37)
       Max VN number:   0.23E+00 at (   3,   1,  33)
       Mesh    4
       Max CFL number:  0.55E-01 at (   1,   1,   5)
       Max divergence:  0.10E-11 at (   1,   1,   4)
       Min divergence: -0.21E-11 at (  48,   1,  37)
       Max VN number:   0.23E+00 at (   1,   1,  39)
 
       Time Step       8   October 28, 2020  13:53:11
       Step Size:    0.395E-02 s, Total Time:       0.03 s
       Pressure Iterations:      1
       Maximum Velocity Error:  0.00E+00 on Mesh   1 at (   0   0   0)
       Maximum Pressure Error:  0.57E+06 on Mesh   1 at (  21   1  25)
       ScaRC: iterations    40, residual  0.38E-08, convergence rate   0.50E+00
       ---------------------------------------------------------------
       Mesh    1
       Max CFL number:  0.88E-01 at (  20,   1,  24)
       Max divergence:  0.42E-11 at (  31,   1,  32)
       Min divergence: -0.33E-11 at (  74,   1,  37)
       Max VN number:   0.23E+00 at (  17,   1,  33)
       Mesh    2
       Max CFL number:  0.21E+00 at (  25,   1,  26)
       Max divergence:  0.44E-11 at (  14,   1,  33)
       Min divergence: -0.41E-11 at (  74,   1,  37)
       Max VN number:   0.23E+00 at (   3,   1,  33)
       Mesh    3
       Max CFL number:  0.63E-01 at (   1,   1,   5)
       Max divergence:  0.15E-11 at (   6,   1,   4)
       Min divergence: -0.57E-11 at (  11,   1,  37)
       Max VN number:   0.23E+00 at (   5,   1,  34)
       Mesh    4
       Max CFL number:  0.62E-01 at (   1,   1,   5)
       Max divergence:  0.87E-12 at (   1,   1,   4)
       Min divergence: -0.20E-11 at (  48,   1,  37)
       Max VN number:   0.23E+00 at (   1,   1,   4)
 
       Time Step       9   October 28, 2020  13:53:11
       Step Size:    0.395E-02 s, Total Time:       0.04 s
       Pressure Iterations:      1
       Maximum Velocity Error:  0.00E+00 on Mesh   1 at (   0   0   0)
       Maximum Pressure Error:  0.57E+06 on Mesh   1 at (  21   1  25)
       ScaRC: iterations    40, residual  0.38E-08, convergence rate   0.50E+00
       ---------------------------------------------------------------
       Mesh    1
       Max CFL number:  0.98E-01 at (  20,   1,  24)
       Max divergence:  0.44E-11 at (  25,   1,  33)
       Min divergence: -0.27E-11 at (  74,   1,  37)
       Max VN number:   0.23E+00 at (  17,   1,  33)
       Mesh    2
       Max CFL number:  0.23E+00 at (  25,   1,  26)
       Max divergence:  0.46E-11 at (   4,   1,  33)
       Min divergence: -0.39E-11 at (  73,   1,  36)
       Max VN number:   0.23E+00 at (   4,   1,  33)
       Mesh    3
       Max CFL number:  0.70E-01 at (   1,   1,   5)
       Max divergence:  0.12E-11 at (  12,   1,   1)
       Min divergence: -0.52E-11 at (  11,   1,  20)
       Max VN number:   0.23E+00 at (   5,   1,  34)
       Mesh    4
       Max CFL number:  0.70E-01 at (   1,   1,   5)
       Max divergence:  0.11E-11 at (   1,   1,   3)
       Min divergence: -0.20E-11 at (  48,   1,  37)
       Max VN number:   0.23E+00 at (   1,   1,   4)
 
       Time Step      10   October 28, 2020  13:53:11
       Step Size:    0.395E-02 s, Total Time:       0.04 s
       Pressure Iterations:      1
       Maximum Velocity Error:  0.00E+00 on Mesh   1 at (   0   0   0)
       Maximum Pressure Error:  0.57E+06 on Mesh   1 at (  21   1  25)
       ScaRC: iterations    40, residual  0.42E-08, convergence rate   0.50E+00
       ---------------------------------------------------------------
       Mesh    1
       Max CFL number:  0.11E+00 at (  20,   1,  24)
       Max divergence:  0.45E-11 at (  34,   1,  34)
       Min divergence: -0.27E-11 at (  73,   1,  37)
       Max VN number:   0.23E+00 at (  17,   1,  34)
       Mesh    2
       Max CFL number:  0.25E+00 at (  25,   1,  26)
       Max divergence:  0.45E-11 at (  12,   1,  33)
       Min divergence: -0.38E-11 at (  73,   1,  36)
       Max VN number:   0.23E+00 at (   4,   1,  33)
       Mesh    3
       Max CFL number:  0.78E-01 at (   1,   1,   5)
       Max divergence:  0.13E-11 at (  12,   1,   1)
       Min divergence: -0.50E-11 at (  11,   1,  36)
       Max VN number:   0.23E+00 at (   3,   1,  34)
       Mesh    4
       Max CFL number:  0.78E-01 at (   1,   1,   5)
       Max divergence:  0.83E-12 at (   1,   1,   3)
       Min divergence: -0.19E-11 at (  48,   1,  28)
       Max VN number:   0.23E+00 at (   1,   1,   4)
 
       Time Step      20   October 28, 2020  13:53:12
       Step Size:    0.395E-02 s, Total Time:       0.08 s
       Pressure Iterations:      1
       Maximum Velocity Error:  0.00E+00 on Mesh   1 at (  76   1   2)
       Maximum Pressure Error:  0.57E+06 on Mesh   1 at (  21   1  25)
       ScaRC: iterations    40, residual  0.98E-08, convergence rate   0.49E+00
       ---------------------------------------------------------------
       Mesh    1
       Max CFL number:  0.22E+00 at (  20,   1,  23)
       Max divergence:  0.49E-11 at (  75,   1,  31)
       Min divergence: -0.42E-11 at (  73,   1,   3)
       Max VN number:   0.23E+00 at (  35,   1,  33)
       Mesh    2
       Max CFL number:  0.49E+00 at (  25,   1,  27)
       Max divergence:  0.53E-11 at (   1,   1,  16)
       Min divergence: -0.62E-11 at (  73,   1,  28)
       Max VN number:   0.23E+00 at (   4,   1,  33)
       Mesh    3
       Max CFL number:  0.16E+00 at (   1,   1,   5)
       Max divergence:  0.40E-11 at (  13,   1,   1)
       Min divergence: -0.70E-11 at (  11,   1,  28)
       Max VN number:   0.23E+00 at (   7,   1,  33)
       Mesh    4
       Max CFL number:  0.16E+00 at (   1,   1,   5)
       Max divergence:  0.17E-11 at (   1,   1,  35)
       Min divergence: -0.28E-11 at (  48,   1,  12)
       Max VN number:   0.23E+00 at (   1,   1,   4)
 
       Time Step      30   October 28, 2020  13:53:14
       Step Size:    0.263E-02 s, Total Time:       0.11 s
       Pressure Iterations:      1
       Maximum Velocity Error:  0.00E+00 on Mesh   1 at (  76   1   2)
       Maximum Pressure Error:  0.57E+06 on Mesh   1 at (  21   1  25)
       ScaRC: iterations    42, residual  0.87E-08, convergence rate   0.50E+00
       ---------------------------------------------------------------
       Mesh    1
       Max CFL number:  0.21E+00 at (  20,   1,  23)
       Max divergence:  0.37E-11 at (  75,   1,  19)
       Min divergence: -0.50E-11 at (  73,   1,  39)
       Max VN number:   0.15E+00 at (  35,   1,  33)
       Mesh    2
       Max CFL number:  0.47E+00 at (  25,   1,  27)
       Max divergence:  0.57E-11 at (   1,   1,  11)
       Min divergence: -0.62E-11 at (  73,   1,  12)
       Max VN number:   0.15E+00 at (  17,   1,  33)
       Mesh    3
       Max CFL number:  0.14E+00 at (   1,   1,   5)
       Max divergence:  0.47E-11 at (  13,   1,   1)
       Min divergence: -0.70E-11 at (  11,   1,   9)
       Max VN number:   0.15E+00 at (   7,   1,  33)
       Mesh    4
       Max CFL number:  0.14E+00 at (   1,   1,   5)
       Max divergence:  0.16E-11 at (  50,   1,   1)
       Min divergence: -0.28E-11 at (  48,   1,  17)
       Max VN number:   0.15E+00 at (   1,   1,   4)
 
       Time Step      40   October 28, 2020  13:53:15
       Step Size:    0.205E-02 s, Total Time:       0.13 s
       Pressure Iterations:      1
       Maximum Velocity Error:  0.00E+00 on Mesh   1 at (  76   1  21)
       Maximum Pressure Error:  0.57E+06 on Mesh   1 at (  21   1  25)
       ScaRC: iterations    43, residual  0.67E-08, convergence rate   0.50E+00
       ---------------------------------------------------------------
       Mesh    1
       Max CFL number:  0.20E+00 at (  20,   1,  23)
       Max divergence:  0.36E-11 at (  75,   1,  36)
       Min divergence: -0.58E-11 at (  20,   1,  25)
       Max VN number:   0.12E+00 at (  36,   1,  33)
       Mesh    2
       Max CFL number:  0.46E+00 at (  25,   1,  27)
       Max divergence:  0.40E-11 at (   2,   1,  37)
       Min divergence: -0.58E-11 at (  26,   1,  26)
       Max VN number:   0.12E+00 at (  18,   1,  33)
       Mesh    3
       Max CFL number:  0.14E+00 at (   1,   1,   5)
       Max divergence:  0.36E-11 at (  13,   1,   1)
       Min divergence: -0.58E-11 at (  11,   1,   8)
       Max VN number:   0.12E+00 at (   9,   1,  33)
       Mesh    4
       Max CFL number:  0.14E+00 at (   1,   1,   5)
       Max divergence:  0.13E-11 at (  50,   1,   1)
       Min divergence: -0.24E-11 at (  48,   1,  17)
       Max VN number:   0.12E+00 at (   3,   1,   4)
 
       Time Step      50   October 28, 2020  13:53:16
       Step Size:    0.183E-02 s, Total Time:       0.15 s
       Pressure Iterations:      1
       Maximum Velocity Error:  0.00E+00 on Mesh   1 at (  76   1  21)
       Maximum Pressure Error:  0.57E+06 on Mesh   1 at (  21   1  25)
       ScaRC: iterations    43, residual  0.80E-08, convergence rate   0.50E+00
       ---------------------------------------------------------------
       Mesh    1
       Max CFL number:  0.21E+00 at (  20,   1,  23)
       Max divergence:  0.26E-11 at (  25,   1,  10)
       Min divergence: -0.71E-11 at (  20,   1,  25)
       Max VN number:   0.11E+00 at (  52,   1,  33)
       Mesh    2
       Max CFL number:  0.47E+00 at (  25,   1,  27)
       Max divergence:  0.36E-11 at (   1,   1,   6)
       Min divergence: -0.62E-11 at (  26,   1,  26)
       Max VN number:   0.11E+00 at (  20,   1,  33)
       Mesh    3
       Max CFL number:  0.14E+00 at (   1,   1,   5)
       Max divergence:  0.27E-11 at (  13,   1,   1)
       Min divergence: -0.48E-11 at (  11,   1,   8)
       Max VN number:   0.11E+00 at (  26,   1,  33)
       Mesh    4
       Max CFL number:  0.14E+00 at (   1,   1,   5)
       Max divergence:  0.10E-11 at (  50,   1,   1)
       Min divergence: -0.21E-11 at (  48,   1,  12)
       Max VN number:   0.11E+00 at (   4,   1,   4)
 
       Time Step      60   October 28, 2020  13:53:17
       Step Size:    0.164E-02 s, Total Time:       0.17 s
       Pressure Iterations:      1
       Maximum Velocity Error:  0.00E+00 on Mesh   1 at (  76   1  21)
       Maximum Pressure Error:  0.57E+06 on Mesh   1 at (  21   1  25)
       ScaRC: iterations    43, residual  0.82E-08, convergence rate   0.50E+00
       ---------------------------------------------------------------
       Mesh    1
       Max CFL number:  0.21E+00 at (  20,   1,  23)
       Max divergence:  0.23E-11 at (  50,   1,   7)
       Min divergence: -0.81E-11 at (  20,   1,  25)
       Max VN number:   0.95E-01 at (  71,   1,  33)
       Mesh    2
       Max CFL number:  0.46E+00 at (  25,   1,  27)
       Max divergence:  0.33E-11 at (   5,   1,  37)
       Min divergence: -0.63E-11 at (  26,   1,  26)
       Max VN number:   0.95E-01 at (  23,   1,  34)
       Mesh    3
       Max CFL number:  0.14E+00 at (   1,   1,   5)
       Max divergence:  0.23E-11 at (  13,   1,   1)
       Min divergence: -0.41E-11 at (  11,   1,  25)
       Max VN number:   0.95E-01 at (   1,   1,  33)
       Mesh    4
       Max CFL number:  0.14E+00 at (   1,   1,   5)
       Max divergence:  0.92E-12 at (  50,   1,   1)
       Min divergence: -0.19E-11 at (  48,   1,  17)
       Max VN number:   0.95E-01 at (   5,   1,  33)
 
       Time Step      70   October 28, 2020  13:53:18
       Step Size:    0.147E-02 s, Total Time:       0.19 s
       Pressure Iterations:      1
       Maximum Velocity Error:  0.00E+00 on Mesh   1 at (  76   1  21)
       Maximum Pressure Error:  0.57E+06 on Mesh   1 at (  21   1  25)
       ScaRC: iterations    43, residual  0.70E-08, convergence rate   0.49E+00
       ---------------------------------------------------------------
       Mesh    1
       Max CFL number:  0.20E+00 at (  20,   1,  25)
       Max divergence:  0.21E-11 at (  17,   1,  37)
       Min divergence: -0.91E-11 at (  20,   1,  25)
       Max VN number:   0.85E-01 at (  72,   1,  33)
       Mesh    2
       Max CFL number:  0.45E+00 at (  25,   1,  27)
       Max divergence:  0.30E-11 at (  29,   1,  15)
       Min divergence: -0.64E-11 at (  26,   1,  26)
       Max VN number:   0.85E-01 at (  24,   1,  34)
       Mesh    3
       Max CFL number:  0.14E+00 at (   1,   1,   5)
       Max divergence:  0.20E-11 at (  13,   1,   1)
       Min divergence: -0.36E-11 at (  11,   1,  33)
       Max VN number:   0.85E-01 at (   1,   1,  33)
       Mesh    4
       Max CFL number:  0.14E+00 at (   1,   1,   5)
       Max divergence:  0.85E-12 at (  50,   1,   1)
       Min divergence: -0.17E-11 at (  48,   1,   5)
       Max VN number:   0.85E-01 at (   7,   1,  33)
 
       Time Step      80   October 28, 2020  13:53:20
       Step Size:    0.147E-02 s, Total Time:       0.20 s
       Pressure Iterations:      1
       Maximum Velocity Error:  0.00E+00 on Mesh   1 at (  76   1  21)
       Maximum Pressure Error:  0.57E+06 on Mesh   1 at (  21   1  25)
       ScaRC: iterations    43, residual  0.65E-08, convergence rate   0.49E+00
       ---------------------------------------------------------------
       Mesh    1
       Max CFL number:  0.23E+00 at (  20,   1,  25)
       Max divergence:  0.20E-11 at (  16,   1,  10)
       Min divergence: -0.97E-11 at (  20,   1,  25)
       Max VN number:   0.85E-01 at (  72,   1,  33)
       Mesh    2
       Max CFL number:  0.48E+00 at (  25,   1,  27)
       Max divergence:  0.35E-11 at (  29,   1,  26)
       Min divergence: -0.66E-11 at (  26,   1,  26)
       Max VN number:   0.85E-01 at (  25,   1,  34)
       Mesh    3
       Max CFL number:  0.15E+00 at (   1,   1,   5)
       Max divergence:  0.19E-11 at (  13,   1,   1)
       Min divergence: -0.33E-11 at (  11,   1,  34)
       Max VN number:   0.85E-01 at (   1,   1,  33)
       Mesh    4
       Max CFL number:  0.15E+00 at (   1,   1,   5)
       Max divergence:  0.80E-12 at (  50,   1,   1)
       Min divergence: -0.18E-11 at (  48,   1,  25)
       Max VN number:   0.85E-01 at (   9,   1,  33)
 
       Time Step      90   October 28, 2020  13:53:21
       Step Size:    0.132E-02 s, Total Time:       0.21 s
       Pressure Iterations:      1
       Maximum Velocity Error:  0.00E+00 on Mesh   1 at (  76   1  21)
       Maximum Pressure Error:  0.57E+06 on Mesh   1 at (  21   1  25)
       ScaRC: iterations    44, residual  0.56E-08, convergence rate   0.50E+00
       ---------------------------------------------------------------
       Mesh    1
       Max CFL number:  0.22E+00 at (  20,   1,  25)
       Max divergence:  0.18E-11 at (  17,   1,  37)
       Min divergence: -0.10E-10 at (  20,   1,  25)
       Max VN number:   0.77E-01 at (  58,   1,  33)
       Mesh    2
       Max CFL number:  0.46E+00 at (  25,   1,  27)
       Max divergence:  0.35E-11 at (  29,   1,  26)
       Min divergence: -0.66E-11 at (  26,   1,  26)
       Max VN number:   0.77E-01 at (  26,   1,  34)
       Mesh    3
       Max CFL number:  0.14E+00 at (   1,   1,   5)
       Max divergence:  0.18E-11 at (  13,   1,   1)
       Min divergence: -0.29E-11 at (  11,   1,  39)
       Max VN number:   0.77E-01 at (   1,   1,  33)
       Mesh    4
       Max CFL number:  0.14E+00 at (   1,   1,   5)
       Max divergence:  0.80E-12 at (  50,   1,   1)
       Min divergence: -0.17E-11 at (  48,   1,   4)
       Max VN number:   0.77E-01 at (   9,   1,  33)
 
       Time Step     100   October 28, 2020  13:53:22
       Step Size:    0.132E-02 s, Total Time:       0.23 s
       Pressure Iterations:      1
       Maximum Velocity Error:  0.00E+00 on Mesh   1 at (  76   1  21)
       Maximum Pressure Error:  0.57E+06 on Mesh   1 at (  21   1  25)
       ScaRC: iterations    44, residual  0.58E-08, convergence rate   0.49E+00
       ---------------------------------------------------------------
       Mesh    1
       Max CFL number:  0.24E+00 at (  20,   1,  25)
       Max divergence:  0.18E-11 at (  24,   1,  26)
       Min divergence: -0.11E-10 at (  20,   1,  25)
       Max VN number:   0.77E-01 at (  26,   1,  33)
       Mesh    2
       Max CFL number:  0.48E+00 at (  25,   1,  27)
       Max divergence:  0.35E-11 at (  29,   1,  26)
       Min divergence: -0.68E-11 at (  25,   1,  16)
       Max VN number:   0.77E-01 at (  26,   1,  34)
       Mesh    3
       Max CFL number:  0.15E+00 at (   1,   1,   5)
       Max divergence:  0.17E-11 at (  13,   1,   1)
       Min divergence: -0.27E-11 at (  11,   1,  34)
       Max VN number:   0.77E-01 at (   1,   1,  33)
       Mesh    4
       Max CFL number:  0.15E+00 at (   1,   1,   5)
       Max divergence:  0.76E-12 at (  50,   1,   1)
       Min divergence: -0.17E-11 at (  48,   1,  39)
       Max VN number:   0.77E-01 at (  10,   1,  33)
 
       Time Step     200   October 28, 2020  13:53:34
       Step Size:    0.960E-03 s, Total Time:       0.34 s
       Pressure Iterations:      1
       Maximum Velocity Error:  0.00E+00 on Mesh   1 at (  76   1  24)
       Maximum Pressure Error:  0.57E+06 on Mesh   1 at (  21   1  25)
       ScaRC: iterations    51, residual  0.47E-08, convergence rate   0.54E+00
       ---------------------------------------------------------------
       Mesh    1
       Max CFL number:  0.27E+00 at (  20,   1,  25)
       Max divergence:  0.19E-11 at (  23,   1,  24)
       Min divergence: -0.51E-11 at (  20,   1,  25)
       Max VN number:   0.56E-01 at (  36,   1,  33)
       Mesh    2
       Max CFL number:  0.47E+00 at (  25,   1,  27)
       Max divergence:  0.28E-11 at (  27,   1,  26)
       Min divergence: -0.86E-11 at (  25,   1,  25)
       Max VN number:   0.56E-01 at (  48,   1,  31)
       Mesh    3
       Max CFL number:  0.16E+00 at (   1,   1,   5)
       Max divergence:  0.94E-12 at (  13,   1,   1)
       Min divergence: -0.28E-11 at (  11,   1,   3)
       Max VN number:   0.56E-01 at (   1,   1,  33)
       Mesh    4
       Max CFL number:  0.16E+00 at (   1,   1,   6)
       Max divergence:  0.67E-12 at (  50,   1,   1)
       Min divergence: -0.17E-11 at (  48,   1,  39)
       Max VN number:   0.56E-01 at (  24,   1,  33)
 
       Time Step     300   October 28, 2020  13:53:46
       Step Size:    0.776E-03 s, Total Time:       0.43 s
       Pressure Iterations:      1
       Maximum Velocity Error:  0.00E+00 on Mesh   1 at (  76   1  24)
       Maximum Pressure Error:  0.57E+06 on Mesh   1 at (  21   1  25)
       ScaRC: iterations    57, residual  0.84E-08, convergence rate   0.57E+00
       ---------------------------------------------------------------
       Mesh    1
       Max CFL number:  0.28E+00 at (  20,   1,  25)
       Max divergence:  0.12E-11 at (  41,   1,  22)
       Min divergence: -0.28E-11 at (  20,   1,  25)
       Max VN number:   0.45E-01 at (  52,   1,  33)
       Mesh    2
       Max CFL number:  0.45E+00 at (  25,   1,  27)
       Max divergence:  0.31E-11 at (  29,   1,  27)
       Min divergence: -0.83E-11 at (  25,   1,  25)
       Max VN number:   0.45E-01 at (  65,   1,  29)
       Mesh    3
       Max CFL number:  0.16E+00 at (   1,   1,   6)
       Max divergence:  0.87E-12 at (  44,   1,   1)
       Min divergence: -0.24E-11 at (  11,   1,   4)
       Max VN number:   0.45E-01 at (  10,   1,  32)
       Mesh    4
       Max CFL number:  0.16E+00 at (   1,   1,   6)
       Max divergence:  0.71E-12 at (  50,   1,   1)
       Min divergence: -0.17E-11 at (  48,   1,  17)
       Max VN number:   0.45E-01 at (  40,   1,  33)
 
       Time Step     400   October 28, 2020  13:53:58
       Step Size:    0.698E-03 s, Total Time:       0.50 s
       Pressure Iterations:      1
       Maximum Velocity Error:  0.00E+00 on Mesh   1 at (  76   1  24)
       Maximum Pressure Error:  0.57E+06 on Mesh   1 at (  21   1  25)
       ScaRC: iterations    60, residual  0.93E-08, convergence rate   0.59E+00
       ---------------------------------------------------------------
       Mesh    1
       Max CFL number:  0.29E+00 at (  20,   1,  25)
       Max divergence:  0.11E-11 at (  55,   1,  22)
       Min divergence: -0.22E-11 at (  20,   1,  25)
       Max VN number:   0.41E-01 at (  72,   1,  32)
       Mesh    2
       Max CFL number:  0.46E+00 at (  25,   1,  27)
       Max divergence:  0.35E-11 at (  29,   1,  14)
       Min divergence: -0.93E-11 at (  25,   1,  25)
       Max VN number:   0.41E-01 at (  75,   1,  24)
       Mesh    3
       Max CFL number:  0.17E+00 at (   1,   1,   5)
       Max divergence:  0.67E-12 at (  62,   1,   1)
       Min divergence: -0.22E-11 at (  11,   1,   3)
       Max VN number:   0.41E-01 at (   5,   1,  28)
       Mesh    4
       Max CFL number:  0.16E+00 at (   1,   1,   6)
       Max divergence:  0.65E-12 at (  50,   1,   1)
       Min divergence: -0.16E-11 at (  48,   1,  34)
       Max VN number:   0.41E-01 at (  56,   1,  33)
 
       Time Step     500   October 28, 2020  13:54:12
       Step Size:    0.628E-03 s, Total Time:       0.57 s
       Pressure Iterations:      1
       Maximum Velocity Error:  0.28E-16 on Mesh   2 at (  76   1  18)
       Maximum Pressure Error:  0.57E+06 on Mesh   1 at (  21   1  25)
       ScaRC: iterations    63, residual  0.42E-08, convergence rate   0.59E+00
       ---------------------------------------------------------------
       Mesh    1
       Max CFL number:  0.30E+00 at (  20,   1,  25)
       Max divergence:  0.93E-12 at (  70,   1,  30)
       Min divergence: -0.18E-11 at (  20,   1,  25)
       Max VN number:   0.36E-01 at (  75,   1,  25)
       Mesh    2
       Max CFL number:  0.46E+00 at (  25,   1,  14)
       Max divergence:  0.31E-11 at (  29,   1,  14)
       Min divergence: -0.10E-10 at (  25,   1,  18)
       Max VN number:   0.36E-01 at (  19,   1,  33)
       Mesh    3
       Max CFL number:  0.17E+00 at (   1,   1,   6)
       Max divergence:  0.64E-12 at (  62,   1,   1)
       Min divergence: -0.19E-11 at (  11,   1,   4)
       Max VN number:   0.36E-01 at (  22,   1,  28)
       Mesh    4
       Max CFL number:  0.16E+00 at (   1,   1,   6)
       Max divergence:  0.63E-12 at (  51,   1,   1)
       Min divergence: -0.18E-11 at (  48,   1,  24)
       Max VN number:   0.36E-01 at (  72,   1,  33)
 
       Time Step     600   October 28, 2020  13:54:25
       Step Size:    0.628E-03 s, Total Time:       0.63 s
       Pressure Iterations:      1
       Maximum Velocity Error:  0.28E-16 on Mesh   1 at (  76   1  25)
       Maximum Pressure Error:  0.57E+06 on Mesh   1 at (  21   1  25)
       ScaRC: iterations    63, residual  0.76E-08, convergence rate   0.60E+00
       ---------------------------------------------------------------
       Mesh    1
       Max CFL number:  0.32E+00 at (  20,   1,  25)
       Max divergence:  0.91E-12 at (  17,   1,  31)
       Min divergence: -0.16E-11 at (  21,   1,  26)
       Max VN number:   0.36E-01 at (  75,   1,  25)
       Mesh    2
       Max CFL number:  0.50E+00 at (  25,   1,  14)
       Max divergence:  0.27E-11 at (  28,   1,  14)
       Min divergence: -0.12E-10 at (  25,   1,  18)
       Max VN number:   0.36E-01 at (  61,   1,  32)
       Mesh    3
       Max CFL number:  0.20E+00 at (   1,   1,   7)
       Max divergence:  0.65E-12 at (  13,   1,   1)
       Min divergence: -0.19E-11 at (  11,   1,   5)
       Max VN number:   0.36E-01 at (  39,   1,  28)
       Mesh    4
       Max CFL number:  0.18E+00 at (   1,   1,   5)
       Max divergence:  0.80E-12 at (  50,   1,   1)
       Min divergence: -0.21E-11 at (  48,   1,  18)
       Max VN number:   0.36E-01 at (   1,   1,  32)
 
       Time Step     700   October 28, 2020  13:54:38
       Step Size:    0.565E-03 s, Total Time:       0.69 s
       Pressure Iterations:      1
       Maximum Velocity Error:  0.00E+00 on Mesh   1 at (  76   1  25)
       Maximum Pressure Error:  0.57E+06 on Mesh   1 at (  21   1  25)
       ScaRC: iterations    64, residual  0.28E-08, convergence rate   0.59E+00
       ---------------------------------------------------------------
       Mesh    1
       Max CFL number:  0.31E+00 at (  20,   1,  25)
       Max divergence:  0.88E-12 at (  71,   1,  30)
       Min divergence: -0.15E-11 at (  20,   1,  25)
       Max VN number:   0.33E-01 at (  72,   1,  25)
       Mesh    2
       Max CFL number:  0.48E+00 at (  25,   1,  14)
       Max divergence:  0.19E-11 at (  28,   1,  27)
       Min divergence: -0.11E-10 at (  25,   1,  18)
       Max VN number:   0.33E-01 at (  72,   1,  29)
       Mesh    3
       Max CFL number:  0.20E+00 at (   1,   1,   7)
       Max divergence:  0.69E-12 at (  62,   1,   1)
       Min divergence: -0.18E-11 at (  11,   1,   5)
       Max VN number:   0.33E-01 at (  53,   1,  25)
       Mesh    4
       Max CFL number:  0.17E+00 at (   1,   1,   8)
       Max divergence:  0.67E-12 at (  50,   1,   1)
       Min divergence: -0.17E-11 at (  48,   1,  40)
       Max VN number:   0.33E-01 at (   3,   1,  24)
 
       Time Step     800   October 28, 2020  13:54:51
       Step Size:    0.508E-03 s, Total Time:       0.75 s
       Pressure Iterations:      1
       Maximum Velocity Error:  0.00E+00 on Mesh   1 at (  76   1  25)
       Maximum Pressure Error:  0.58E+06 on Mesh   1 at (  21   1  25)
       ScaRC: iterations    64, residual  0.52E-08, convergence rate   0.60E+00
       ---------------------------------------------------------------
       Mesh    1
       Max CFL number:  0.30E+00 at (  20,   1,  25)
       Max divergence:  0.87E-12 at (  23,   1,  28)
       Min divergence: -0.15E-11 at (  20,   1,  25)
       Max VN number:   0.30E-01 at (  72,   1,  25)
       Mesh    2
       Max CFL number:  0.45E+00 at (  25,   1,  14)
       Max divergence:  0.30E-11 at (  30,   1,  13)
       Min divergence: -0.77E-11 at (  28,   1,  20)
       Max VN number:   0.30E-01 at (  72,   1,  19)
       Mesh    3
       Max CFL number:  0.22E+00 at (   1,   1,   9)
       Max divergence:  0.52E-12 at (  16,   1,   1)
       Min divergence: -0.17E-11 at (  11,   1,  10)
       Max VN number:   0.30E-01 at (  71,   1,  25)
       Mesh    4
       Max CFL number:  0.16E+00 at (   1,   1,  14)
       Max divergence:  0.47E-12 at (  50,   1,   1)
       Min divergence: -0.19E-11 at (  48,   1,  39)
       Max VN number:   0.30E-01 at (   1,   1,  28)
 
       Time Step     900   October 28, 2020  13:55:04
       Step Size:    0.508E-03 s, Total Time:       0.80 s
       Pressure Iterations:      1
       Maximum Velocity Error:  0.00E+00 on Mesh   1 at (  76   1  25)
       Maximum Pressure Error:  0.58E+06 on Mesh   1 at (  21   1  25)
       ScaRC: iterations    64, residual  0.77E-08, convergence rate   0.60E+00
       ---------------------------------------------------------------
       Mesh    1
       Max CFL number:  0.31E+00 at (  20,   1,  25)
       Max divergence:  0.81E-12 at (  16,   1,   6)
       Min divergence: -0.14E-11 at (  73,   1,  40)
       Max VN number:   0.30E-01 at (  72,   1,  25)
       Mesh    2
       Max CFL number:  0.47E+00 at (  25,   1,  14)
       Max divergence:  0.36E-11 at (  28,   1,  14)
       Min divergence: -0.87E-11 at (  27,   1,  15)
       Max VN number:   0.30E-01 at (  61,   1,  20)
       Mesh    3
       Max CFL number:  0.27E+00 at (   1,   1,  12)
       Max divergence:  0.61E-12 at (   7,   1,  17)
       Min divergence: -0.17E-11 at (  11,   1,  40)
       Max VN number:   0.30E-01 at (  24,   1,  13)
       Mesh    4
       Max CFL number:  0.17E+00 at (   1,   1,  15)
       Max divergence:  0.65E-12 at (  54,   1,   1)
       Min divergence: -0.22E-11 at (  48,   1,  32)
       Max VN number:   0.30E-01 at (  11,   1,  25)
 
       Time Step    1000   October 28, 2020  13:55:17
       Step Size:    0.508E-03 s, Total Time:       0.85 s
       Pressure Iterations:      1
       Maximum Velocity Error:  0.00E+00 on Mesh   1 at (  76   1  25)
       Maximum Pressure Error:  0.58E+06 on Mesh   1 at (  21   1  25)
       ScaRC: iterations    65, residual  0.23E-08, convergence rate   0.59E+00
       ---------------------------------------------------------------
       Mesh    1
       Max CFL number:  0.33E+00 at (  20,   1,  25)
       Max divergence:  0.85E-12 at (  18,   1,  25)
       Min divergence: -0.16E-11 at (  20,   1,  25)
       Max VN number:   0.30E-01 at (  72,   1,  25)
       Mesh    2
       Max CFL number:  0.49E+00 at (  25,   1,  14)
       Max divergence:  0.39E-11 at (  28,   1,  14)
       Min divergence: -0.94E-11 at (  27,   1,  15)
       Max VN number:   0.30E-01 at (  36,   1,  21)
       Mesh    3
       Max CFL number:  0.33E+00 at (   1,   1,  11)
       Max divergence:  0.95E-12 at (   2,   1,  19)
       Min divergence: -0.21E-11 at (  11,   1,  21)
       Max VN number:   0.30E-01 at (  41,   1,  13)
       Mesh    4
       Max CFL number:  0.18E+00 at (   1,   1,  15)
       Max divergence:  0.11E-11 at (  75,   1,  27)
       Min divergence: -0.23E-11 at (  48,   1,   6)
       Max VN number:   0.30E-01 at (  29,   1,  25)
 
       Time Step    1100   October 28, 2020  13:55:30
       Step Size:    0.457E-03 s, Total Time:       0.89 s
       Pressure Iterations:      1
       Maximum Velocity Error:  0.56E-16 on Mesh   2 at (  76   1  12)
       Maximum Pressure Error:  0.59E+06 on Mesh   1 at (  21   1  25)
       ScaRC: iterations    65, residual  0.33E-08, convergence rate   0.59E+00
       ---------------------------------------------------------------
       Mesh    1
       Max CFL number:  0.31E+00 at (  20,   1,  25)
       Max divergence:  0.82E-12 at (  16,   1,  30)
       Min divergence: -0.15E-11 at (  73,   1,  40)
       Max VN number:   0.27E-01 at (  72,   1,  25)
       Mesh    2
       Max CFL number:  0.46E+00 at (  25,   1,  14)
       Max divergence:  0.41E-11 at (  28,   1,  14)
       Min divergence: -0.97E-11 at (  27,   1,  15)
       Max VN number:   0.27E-01 at (  31,   1,  20)
       Mesh    3
       Max CFL number:  0.34E+00 at (   1,   1,  10)
       Max divergence:  0.76E-12 at (   2,   1,  22)
       Min divergence: -0.19E-11 at (  11,   1,   5)
       Max VN number:   0.27E-01 at (  56,   1,  16)
       Mesh    4
       Max CFL number:  0.17E+00 at (   1,   1,  15)
       Max divergence:  0.71E-12 at (  51,   1,   1)
       Min divergence: -0.22E-11 at (  48,   1,  15)
       Max VN number:   0.27E-01 at (  44,   1,  25)
 
       Time Step    1200   October 28, 2020  13:55:44
       Step Size:    0.457E-03 s, Total Time:       0.94 s
       Pressure Iterations:      1
       Maximum Velocity Error:  0.00E+00 on Mesh   1 at (  76   1  25)
       Maximum Pressure Error:  0.59E+06 on Mesh   1 at (  21   1  25)
       ScaRC: iterations    65, residual  0.46E-08, convergence rate   0.60E+00
       ---------------------------------------------------------------
       Mesh    1
       Max CFL number:  0.32E+00 at (  20,   1,  25)
       Max divergence:  0.88E-12 at (  23,   1,  17)
       Min divergence: -0.13E-11 at (  22,   1,  25)
       Max VN number:   0.27E-01 at (  72,   1,  25)
       Mesh    2
       Max CFL number:  0.48E+00 at (  25,   1,  14)
       Max divergence:  0.40E-11 at (  28,   1,  14)
       Min divergence: -0.10E-10 at (  27,   1,  15)
       Max VN number:   0.27E-01 at (  31,   1,  25)
       Mesh    3
       Max CFL number:  0.35E+00 at (   1,   1,   9)
       Max divergence:  0.58E-12 at (  56,   1,  17)
       Min divergence: -0.22E-11 at (  11,   1,  38)
       Max VN number:   0.27E-01 at (  73,   1,  17)
       Mesh    4
       Max CFL number:  0.17E+00 at (   1,   1,  15)
       Max divergence:  0.70E-12 at (  50,   1,   1)
       Min divergence: -0.24E-11 at (  48,   1,  39)
       Max VN number:   0.27E-01 at (  61,   1,  25)
 
       Time Step    1300   October 28, 2020  13:55:58
       Step Size:    0.457E-03 s, Total Time:       0.99 s
       Pressure Iterations:      1
       Maximum Velocity Error:  0.00E+00 on Mesh   1 at (  76   1  25)
       Maximum Pressure Error:  0.59E+06 on Mesh   1 at (  21   1  25)
       ScaRC: iterations    65, residual  0.71E-08, convergence rate   0.60E+00
       ---------------------------------------------------------------
       Mesh    1
       Max CFL number:  0.33E+00 at (  20,   1,  25)
       Max divergence:  0.84E-12 at (  31,   1,  22)
       Min divergence: -0.15E-11 at (  73,   1,  40)
       Max VN number:   0.27E-01 at (  72,   1,  25)
       Mesh    2
       Max CFL number:  0.49E+00 at (  25,   1,  14)
       Max divergence:  0.34E-11 at (  28,   1,  14)
       Min divergence: -0.93E-11 at (  27,   1,  15)
       Max VN number:   0.27E-01 at (  37,   1,  27)
       Mesh    3
       Max CFL number:  0.37E+00 at (   1,   1,   8)
       Max divergence:  0.74E-12 at (  12,   1,  22)
       Min divergence: -0.24E-11 at (  11,   1,   3)
       Max VN number:   0.27E-01 at (  75,   1,  21)
       Mesh    4
       Max CFL number:  0.18E+00 at (   1,   1,  15)
       Max divergence:  0.72E-12 at (  50,   1,   1)
       Min divergence: -0.25E-11 at (  48,   1,  39)
       Max VN number:   0.27E-01 at (  75,   1,  24)
 
       Time Step    1400   October 28, 2020  13:56:12
       Step Size:    0.412E-03 s, Total Time:       1.03 s
       Pressure Iterations:      1
       Maximum Velocity Error:  0.00E+00 on Mesh   1 at (  76   1  25)
       Maximum Pressure Error:  0.60E+06 on Mesh   1 at (  21   1  25)
       ScaRC: iterations    65, residual  0.66E-08, convergence rate   0.60E+00
       ---------------------------------------------------------------
       Mesh    1
       Max CFL number:  0.30E+00 at (  20,   1,  25)
       Max divergence:  0.87E-12 at (  31,   1,  14)
       Min divergence: -0.14E-11 at (  73,   1,  40)
       Max VN number:   0.24E-01 at (  72,   1,  25)
       Mesh    2
       Max CFL number:  0.45E+00 at (  25,   1,  14)
       Max divergence:  0.27E-11 at (  28,   1,  14)
       Min divergence: -0.79E-11 at (  27,   1,  15)
       Max VN number:   0.24E-01 at (  73,   1,  16)
       Mesh    3
       Max CFL number:  0.35E+00 at (   5,   1,   8)
       Max divergence:  0.14E-11 at (  12,   1,  23)
       Min divergence: -0.22E-11 at (  11,   1,  39)
       Max VN number:   0.24E-01 at (  75,   1,  21)
       Mesh    4
       Max CFL number:  0.17E+00 at (   1,   1,  35)
       Max divergence:  0.63E-12 at (  50,   1,   1)
       Min divergence: -0.25E-11 at (  48,   1,   9)
       Max VN number:   0.24E-01 at (  47,   1,  24)
 
       Time Step    1500   October 28, 2020  13:56:26
       Step Size:    0.412E-03 s, Total Time:       1.07 s
       Pressure Iterations:      1
       Maximum Velocity Error:  0.00E+00 on Mesh   1 at (  76   1  25)
       Maximum Pressure Error:  0.60E+06 on Mesh   1 at (  21   1  25)
       ScaRC: iterations    65, residual  0.74E-08, convergence rate   0.60E+00
       ---------------------------------------------------------------
       Mesh    1
       Max CFL number:  0.31E+00 at (  20,   1,  25)
       Max divergence:  0.76E-12 at (  31,   1,  27)
       Min divergence: -0.15E-11 at (  73,   1,  40)
       Max VN number:   0.24E-01 at (  72,   1,  25)
       Mesh    2
       Max CFL number:  0.46E+00 at (  25,   1,  14)
       Max divergence:  0.23E-11 at (  28,   1,  14)
       Min divergence: -0.66E-11 at (  27,   1,  15)
       Max VN number:   0.24E-01 at (  74,   1,  15)
       Mesh    3
       Max CFL number:  0.36E+00 at (  15,   1,   9)
       Max divergence:  0.21E-11 at (  11,   1,  15)
       Min divergence: -0.23E-11 at (  12,   1,   3)
       Max VN number:   0.24E-01 at (  12,   1,  16)
       Mesh    4
       Max CFL number:  0.17E+00 at (   1,   1,  15)
       Max divergence:  0.46E-12 at (  36,   1,  16)
       Min divergence: -0.23E-11 at (  48,   1,  31)
       Max VN number:   0.24E-01 at (  75,   1,  24)
 
       Time Step    1600   October 28, 2020  13:56:39
       Step Size:    0.412E-03 s, Total Time:       1.11 s
       Pressure Iterations:      1
       Maximum Velocity Error:  0.56E-16 on Mesh   2 at (  76   1  30)
       Maximum Pressure Error:  0.60E+06 on Mesh   1 at (  21   1  25)
       ScaRC: iterations    65, residual  0.58E-08, convergence rate   0.60E+00
       ---------------------------------------------------------------
       Mesh    1
       Max CFL number:  0.31E+00 at (  20,   1,  25)
       Max divergence:  0.84E-12 at (  16,   1,  10)
       Min divergence: -0.14E-11 at (  73,   1,  40)
       Max VN number:   0.24E-01 at (  72,   1,  25)
       Mesh    2
       Max CFL number:  0.47E+00 at (  25,   1,  14)
       Max divergence:  0.26E-11 at (  73,   1,  27)
       Min divergence: -0.57E-11 at (  27,   1,  15)
       Max VN number:   0.24E-01 at (  73,   1,  25)
       Mesh    3
       Max CFL number:  0.38E+00 at (   8,   1,  34)
       Max divergence:  0.24E-11 at (  11,   1,  26)
       Min divergence: -0.28E-11 at (  11,   1,   3)
       Max VN number:   0.24E-01 at (  12,   1,  15)
       Mesh    4
       Max CFL number:  0.18E+00 at (   1,   1,  15)
       Max divergence:  0.46E-12 at (  51,   1,   1)
       Min divergence: -0.24E-11 at (  48,   1,   4)
       Max VN number:   0.24E-01 at (  75,   1,  17)
 
       Time Step    1700   October 28, 2020  13:56:53
       Step Size:    0.412E-03 s, Total Time:       1.15 s
       Pressure Iterations:      1
       Maximum Velocity Error:  0.00E+00 on Mesh   1 at (  76   1  25)
       Maximum Pressure Error:  0.61E+06 on Mesh   1 at (  21   1  25)
       ScaRC: iterations    66, residual  0.35E-08, convergence rate   0.60E+00
       ---------------------------------------------------------------
       Mesh    1
       Max CFL number:  0.32E+00 at (  20,   1,  25)
       Max divergence:  0.85E-12 at (  16,   1,  25)
       Min divergence: -0.14E-11 at (  73,   1,  40)
       Max VN number:   0.24E-01 at (  72,   1,  25)
       Mesh    2
       Max CFL number:  0.48E+00 at (  25,   1,  14)
       Max divergence:  0.29E-11 at (  73,   1,  15)
       Min divergence: -0.53E-11 at (  27,   1,  15)
       Max VN number:   0.24E-01 at (  73,   1,  17)
       Mesh    3
       Max CFL number:  0.41E+00 at (   1,   1,   8)
       Max divergence:  0.31E-11 at (  12,   1,  24)
       Min divergence: -0.36E-11 at (  11,   1,  37)
       Max VN number:   0.24E-01 at (  12,   1,  26)
       Mesh    4
       Max CFL number:  0.18E+00 at (  10,   1,  14)
       Max divergence:  0.54E-12 at (  50,   1,   1)
       Min divergence: -0.26E-11 at (  48,   1,  39)
       Max VN number:   0.24E-01 at (  75,   1,  24)
 
       Time Step    1800   October 28, 2020  13:57:06
       Step Size:    0.412E-03 s, Total Time:       1.20 s
       Pressure Iterations:      1
       Maximum Velocity Error:  0.11E-15 on Mesh   2 at (  76   1   2)
       Maximum Pressure Error:  0.61E+06 on Mesh   1 at (  21   1  25)
       ScaRC: iterations    66, residual  0.32E-08, convergence rate   0.60E+00
       ---------------------------------------------------------------
       Mesh    1
       Max CFL number:  0.32E+00 at (  20,   1,  25)
       Max divergence:  0.85E-12 at (  18,   1,  25)
       Min divergence: -0.15E-11 at (  73,   1,  40)
       Max VN number:   0.24E-01 at (  72,   1,  25)
       Mesh    2
       Max CFL number:  0.49E+00 at (  25,   1,  14)
       Max divergence:  0.17E-11 at (  73,   1,  26)
       Min divergence: -0.52E-11 at (  27,   1,  15)
       Max VN number:   0.24E-01 at (  74,   1,  14)
       Mesh    3
       Max CFL number:  0.46E+00 at (  13,   1,   8)
       Max divergence:  0.37E-11 at (  11,   1,  18)
       Min divergence: -0.33E-11 at (  11,   1,   7)
       Max VN number:   0.24E-01 at (   1,   1,  14)
       Mesh    4
       Max CFL number:  0.21E+00 at (   1,   1,  32)
       Max divergence:  0.55E-12 at (  50,   1,   1)
       Min divergence: -0.27E-11 at (  48,   1,  39)
       Max VN number:   0.24E-01 at (  75,   1,  22)
 
       Time Step    1900   October 28, 2020  13:57:21
       Step Size:    0.412E-03 s, Total Time:       1.24 s
       Pressure Iterations:      1
       Maximum Velocity Error:  0.56E-16 on Mesh   2 at (  76   1   5)
       Maximum Pressure Error:  0.61E+06 on Mesh   1 at (  21   1  25)
       ScaRC: iterations    66, residual  0.43E-08, convergence rate   0.60E+00
       ---------------------------------------------------------------
       Mesh    1
       Max CFL number:  0.33E+00 at (  20,   1,  25)
       Max divergence:  0.89E-12 at (  45,   1,  32)
       Min divergence: -0.16E-11 at (  73,   1,  40)
       Max VN number:   0.24E-01 at (  72,   1,  25)
       Mesh    2
       Max CFL number:  0.50E+00 at (  25,   1,  27)
       Max divergence:  0.22E-11 at (  74,   1,  23)
       Min divergence: -0.52E-11 at (  27,   1,  26)
       Max VN number:   0.24E-01 at (  75,   1,  12)
       Mesh    3
       Max CFL number:  0.50E+00 at (  26,   1,   6)
       Max divergence:  0.16E-11 at (  42,   1,  27)
       Min divergence: -0.69E-11 at (  42,   1,  40)
       Max VN number:   0.24E-01 at (  46,   1,  27)
       Mesh    4
       Max CFL number:  0.26E+00 at (   1,   1,   7)
       Max divergence:  0.50E-12 at (  50,   1,   1)
       Min divergence: -0.26E-11 at (  48,   1,   8)
       Max VN number:   0.24E-01 at (  75,   1,  22)
 
       Time Step    2000   October 28, 2020  13:57:35
       Step Size:    0.370E-03 s, Total Time:       1.27 s
       Pressure Iterations:      1
       Maximum Velocity Error:  0.00E+00 on Mesh   1 at (  76   1  25)
       Maximum Pressure Error:  0.62E+06 on Mesh   1 at (  21   1  25)
       ScaRC: iterations    66, residual  0.34E-08, convergence rate   0.60E+00
       ---------------------------------------------------------------
       Mesh    1
       Max CFL number:  0.30E+00 at (  20,   1,  25)
       Max divergence:  0.82E-12 at (  45,   1,  32)
       Min divergence: -0.15E-11 at (  73,   1,  40)
       Max VN number:   0.21E-01 at (  72,   1,  25)
       Mesh    2
       Max CFL number:  0.46E+00 at (  25,   1,  14)
       Max divergence:  0.16E-11 at (  64,   1,   8)
       Min divergence: -0.49E-11 at (  28,   1,  16)
       Max VN number:   0.21E-01 at (  71,   1,  33)
       Mesh    3
       Max CFL number:  0.49E+00 at (  42,   1,   1)
       Max divergence:  0.22E-11 at (  42,   1,  14)
       Min divergence: -0.98E-11 at (  42,   1,   1)
       Max VN number:   0.21E-01 at (  61,   1,  28)
       Mesh    4
       Max CFL number:  0.34E+00 at (   9,   1,   3)
       Max divergence:  0.57E-12 at (   7,   1,  35)
       Min divergence: -0.28E-11 at (  48,   1,  39)
       Max VN number:   0.21E-01 at (  75,   1,  22)
 
       Time Step    2100   October 28, 2020  13:57:48
       Step Size:    0.370E-03 s, Total Time:       1.31 s
       Pressure Iterations:      1
       Maximum Velocity Error:  0.11E-15 on Mesh   2 at (  76   1   5)
       Maximum Pressure Error:  0.64E+06 on Mesh   1 at (  21   1  25)
       ScaRC: iterations    66, residual  0.44E-08, convergence rate   0.60E+00
       ---------------------------------------------------------------
       Mesh    1
       Max CFL number:  0.30E+00 at (  20,   1,  25)
       Max divergence:  0.97E-12 at (  16,   1,  25)
       Min divergence: -0.14E-11 at (  73,   1,  40)
       Max VN number:   0.21E-01 at (  72,   1,  25)
       Mesh    2
       Max CFL number:  0.48E+00 at (  44,   1,  13)
       Max divergence:  0.16E-11 at (  58,   1,  34)
       Min divergence: -0.74E-11 at (  73,   1,   1)
       Max VN number:   0.21E-01 at (  72,   1,   3)
       Mesh    3
       Max CFL number:  0.47E+00 at (   8,   1,   6)
       Max divergence:  0.26E-11 at (  60,   1,  15)
       Min divergence: -0.79E-11 at (  60,   1,   1)
       Max VN number:   0.21E-01 at (  56,   1,  13)
       Mesh    4
       Max CFL number:  0.41E+00 at (   4,   1,  39)
       Max divergence:  0.11E-11 at (   2,   1,   8)
       Min divergence: -0.30E-11 at (  48,   1,  38)
       Max VN number:   0.21E-01 at (   5,   1,  31)
 
       Time Step    2200   October 28, 2020  13:58:01
       Step Size:    0.332E-03 s, Total Time:       1.35 s
       Pressure Iterations:      1
       Maximum Velocity Error:  0.14E-16 on Mesh   3 at (  76   1  16)
       Maximum Pressure Error:  0.69E+06 on Mesh   1 at (  21   1  25)
       ScaRC: iterations    66, residual  0.46E-08, convergence rate   0.60E+00
       ---------------------------------------------------------------
       Mesh    1
       Max CFL number:  0.28E+00 at (  20,   1,  25)
       Max divergence:  0.85E-12 at (  16,   1,  25)
       Min divergence: -0.14E-11 at (  73,   1,  40)
       Max VN number:   0.19E-01 at (  72,   1,  25)
       Mesh    2
       Max CFL number:  0.47E+00 at (  25,   1,  27)
       Max divergence:  0.14E-11 at (  41,   1,   9)
       Min divergence: -0.45E-11 at (  27,   1,  26)
       Max VN number:   0.19E-01 at (  72,   1,   5)
       Mesh    3
       Max CFL number:  0.43E+00 at (  14,   1,   7)
       Max divergence:  0.16E-11 at (  42,   1,  24)
       Min divergence: -0.57E-11 at (  42,   1,  40)
       Max VN number:   0.19E-01 at (  72,   1,  10)
       Mesh    4
       Max CFL number:  0.42E+00 at (   2,   1,   2)
       Max divergence:  0.94E-12 at (  20,   1,   8)
       Min divergence: -0.43E-11 at (  48,   1,   1)
       Max VN number:   0.19E-01 at (  23,   1,  32)
 
       Time Step    2300   October 28, 2020  13:58:15
       Step Size:    0.298E-03 s, Total Time:       1.38 s
       Pressure Iterations:      1
       Maximum Velocity Error:  0.00E+00 on Mesh   1 at (  76   1  25)
       Maximum Pressure Error:  0.80E+06 on Mesh   1 at (  21   1  25)
       ScaRC: iterations    66, residual  0.38E-08, convergence rate   0.59E+00
       ---------------------------------------------------------------
       Mesh    1
       Max CFL number:  0.25E+00 at (  20,   1,  25)
       Max divergence:  0.99E-12 at (  16,   1,  25)
       Min divergence: -0.15E-11 at (  73,   1,  40)
       Max VN number:   0.17E-01 at (  72,   1,  25)
       Mesh    2
       Max CFL number:  0.47E+00 at (  25,   1,  14)
       Max divergence:  0.14E-11 at (  62,   1,   4)
       Min divergence: -0.46E-11 at (  25,   1,  18)
       Max VN number:   0.17E-01 at (  72,   1,  36)
       Mesh    3
       Max CFL number:  0.37E+00 at (  69,   1,  35)
       Max divergence:  0.18E-11 at (  60,   1,  26)
       Min divergence: -0.67E-11 at (  60,   1,  40)
       Max VN number:   0.17E-01 at (  61,   1,  22)
       Mesh    4
       Max CFL number:  0.40E+00 at (  21,   1,   1)
       Max divergence:  0.20E-11 at (  48,   1,  27)
       Min divergence: -0.69E-11 at (  48,   1,  39)
       Max VN number:   0.17E-01 at (  21,   1,   8)
 
       Time Step    2400   October 28, 2020  13:58:29
       Step Size:    0.298E-03 s, Total Time:       1.41 s
       Pressure Iterations:      1
       Maximum Velocity Error:  0.14E-16 on Mesh   3 at (  76   1  16)
       Maximum Pressure Error:  0.91E+06 on Mesh   1 at (  21   1  25)
       ScaRC: iterations    66, residual  0.58E-08, convergence rate   0.60E+00
       ---------------------------------------------------------------
       Mesh    1
       Max CFL number:  0.25E+00 at (  20,   1,  25)
       Max divergence:  0.95E-12 at (  23,   1,  32)
       Min divergence: -0.15E-11 at (  73,   1,  40)
       Max VN number:   0.17E-01 at (  72,   1,  25)
       Mesh    2
       Max CFL number:  0.48E+00 at (  25,   1,  27)
       Max divergence:  0.18E-11 at (  36,   1,  18)
       Min divergence: -0.48E-11 at (  25,   1,  18)
       Max VN number:   0.17E-01 at (  72,   1,   4)
       Mesh    3
       Max CFL number:  0.38E+00 at (  55,   1,   8)
       Max divergence:  0.77E-12 at (  46,   1,   5)
       Min divergence: -0.76E-11 at (  42,   1,   1)
       Max VN number:   0.17E-01 at (   1,   1,   4)
       Mesh    4
       Max CFL number:  0.41E+00 at (  41,   1,   1)
       Max divergence:  0.17E-11 at (  48,   1,  30)
       Min divergence: -0.10E-10 at (  48,   1,   1)
       Max VN number:   0.17E-01 at (  42,   1,   8)
 
       Time Step    2500   October 28, 2020  13:58:42
       Step Size:    0.268E-03 s, Total Time:       1.43 s
       Pressure Iterations:      1
       Maximum Velocity Error:  0.56E-16 on Mesh   2 at (  76   1  14)
       Maximum Pressure Error:  0.15E+07 on Mesh   1 at (  21   1  25)
       ScaRC: iterations    66, residual  0.64E-08, convergence rate   0.60E+00
       ---------------------------------------------------------------
       Mesh    1
       Max CFL number:  0.23E+00 at (  20,   1,  25)
       Max divergence:  0.11E-11 at (  23,   1,  32)
       Min divergence: -0.16E-11 at (  73,   1,  40)
       Max VN number:   0.16E-01 at (  72,   1,  25)
       Mesh    2
       Max CFL number:  0.45E+00 at (  25,   1,  27)
       Max divergence:  0.19E-11 at (  63,   1,  35)
       Min divergence: -0.48E-11 at (  28,   1,  16)
       Max VN number:   0.16E-01 at (  72,   1,   4)
       Mesh    3
       Max CFL number:  0.34E+00 at (  14,   1,   9)
       Max divergence:  0.11E-11 at (  55,   1,   5)
       Min divergence: -0.70E-11 at (  60,   1,   1)
       Max VN number:   0.16E-01 at (   8,   1,   4)
       Mesh    4
       Max CFL number:  0.37E+00 at (  56,   1,   1)
       Max divergence:  0.88E-12 at (  63,   1,   4)
       Min divergence: -0.14E-10 at (  48,   1,   1)
       Max VN number:   0.16E-01 at (  53,   1,  10)
 
