
 Fire Dynamics Simulator

 Current Date     : November 13, 2020  11:36:18
 Revision         : -master
 Revision Date    : Fri Nov 13 11:22:28 2020 +0100
 Compiler         : Intel ifort 18.0.1
 Compilation Date : Nov 13, 2020 11:25:08

 MPI Enabled;    Number of MPI Processes:       4
 OpenMP Enabled; Number of OpenMP Threads:      2

 MPI version: 3.1
 MPI library version: Intel(R) MPI Library 2018 Update 1 for Linux* OS


 Job TITLE        : Simple 2D Tunnel
 Job ID string    : dancing_eddies_default


 Grid Dimensions, Mesh     1

   Cells in the X Direction            75
   Cells in the Y Direction             1
   Cells in the Z Direction            40
   Number of Grid Cells              3000


 Physical Dimensions, Mesh     1

   Length (m)                       0.075
   Width  (m)                       0.002
   Height (m)                       0.040
   Initial Time Step (s)            0.004

 Grid Dimensions, Mesh     2

   Cells in the X Direction            75
   Cells in the Y Direction             1
   Cells in the Z Direction            40
   Number of Grid Cells              3000


 Physical Dimensions, Mesh     2

   Length (m)                       0.075
   Width  (m)                       0.002
   Height (m)                       0.040
   Initial Time Step (s)            0.004

 Grid Dimensions, Mesh     3

   Cells in the X Direction            75
   Cells in the Y Direction             1
   Cells in the Z Direction            40
   Number of Grid Cells              3000


 Physical Dimensions, Mesh     3

   Length (m)                       0.075
   Width  (m)                       0.002
   Height (m)                       0.040
   Initial Time Step (s)            0.004

 Grid Dimensions, Mesh     4

   Cells in the X Direction            75
   Cells in the Y Direction             1
   Cells in the Z Direction            40
   Number of Grid Cells              3000


 Physical Dimensions, Mesh     4

   Length (m)                       0.075
   Width  (m)                       0.002
   Height (m)                       0.040
   Initial Time Step (s)            0.004

Total Number of Grid Cells         12000


 Miscellaneous Parameters

   Simulation Start Time (s)          0.0
   Simulation End Time (s)            2.0
   Ambient Temperature (C):         20.00


 Mass Fraction Transformation Matrix to Convert Species Mixtures (Columns) to Primitive Species (Rows)

                         AIR     
   AIR                   1.000000


 Primitive Species Information

   AIR
   Gas Species
   Molecular Weight (g/mol)            28.01340
   Ambient Density (kg/m^3)            1.165
   Enthalpy of Formation (J/kg)        0.00E+00


 Tracked (Lumped) Species Information

   AIR
   Molecular Weight (g/mol)            28.01340
   Ambient Density (kg/m^3)            1.165
   Initial Mass Fraction               1.000
   Enthalpy of Formation (J/kg)      0.00E+00

   Sub Species                    Mass Fraction     Mole Fraction
   AIR                            1.000000E+00      1.000000E+00
 
     Viscosity (kg/m/s) Ambient,  293 K:  1.20E-05
                                  500 K:  1.20E-05
                                 1000 K:  1.20E-05
                                 1500 K:  1.20E-05
   Therm. Cond. (W/m/K) Ambient,  293 K:  1.76E-02
                                  500 K:  1.76E-02
                                 1000 K:  1.76E-02
                                 1500 K:  1.76E-02
        Enthalpy (J/kg) Ambient,  293 K:  3.05E+05
                                  500 K:  5.19E+05
                                 1000 K:  1.04E+06
                                 1500 K:  1.56E+06
    Spec. Heat (J/kg/K) Ambient,  293 K:  1.04E+03
                                  500 K:  1.04E+03
                                 1000 K:  1.04E+03
                                 1500 K:  1.04E+03
   Diff. Coeff. (m^2/s) Ambient,  293 K:  1.99E-05
                                  500 K:  4.93E-05
                                 1000 K:  1.57E-04
                                 1500 K:  3.07E-04


 Material Information


 Surface Conditions

   0 INERT

   1 WALL (DEFAULT)

   2 PLATE

   3 BLOW
     Normal Velocity (m/s)        -0.500
     AIR Mass Fraction         1.000

   4 OPEN
     Passive Vent to Atmosphere

   5 MIRROR
     Symmetry Plane

   6 INTERPOLATED

   7 PERIODIC

   8 HVAC

   9 MASSLESS TRACER

  10 DROPLET

  11 EVACUATION_OUTFLOW
     Normal Velocity (m/s)         0.000

  12 MASSLESS TARGET

  13 PERIODIC FLOW ONLY


 Cut-off Density and Temperature

    Minimum Temperature:   -10.0 C
    Maximum Temperature:  2726.8 C
    Minimum Density:  1.165E-01 kg/m3
    Maximum Density:  2.595E+00 kg/m3


 Device Coordinates

     1 Coords:      0.200000      0.000000      0.000000, Make: null, ID: pres, Quantity: PRESSURE
     2 Coords:      0.000010      0.000000      0.000000, Make: null, ID: error, Quantity: MAXIMUM VELOCITY ERROR
     3 Coords:      0.000010      0.000000      0.000000, Make: null, ID: iter, Quantity: PRESSURE ITERATIONS


 Slice File Information, Mesh     1

   Sampling Interval (s)             0.002

   1 Nodes:   0  75   1   1   0  40, Quantity: VELOCITY
   2 Nodes:   0  75   1   1   0  40, Quantity: U-VELOCITY
   3 Nodes:   0  75   1   1   0  40, Quantity: W-VELOCITY
   4 Nodes:   0  75   1   1   0  40, Quantity: H
   5 Nodes:   0  75   1   1   0  40, Quantity: PRESSURE


 Radiation Model Information

   Number of control angles   60
   Time step increment         2
   Angle increment             4
   Phi band   N_theta Solid angle
     1:       60     0.209
 
 

 Run Time Diagnostics

       Time Step       1   November 13, 2020  11:36:19
       Step Size:    0.395E-02 s, Total Time:      0.004 s
       Pressure Iterations:     10
       Maximum Velocity Error:  0.18E-02 on Mesh   1 at (  76   1  20)
       Maximum Pressure Error:  0.54E-10 on Mesh   1 at (   9   1   2)
       ---------------------------------------------------------------
       Mesh    1
       Max CFL number:  0.12E-01 at (  20,   1,  24)
       Max divergence:  0.86E-13 at (  18,   1,   9)
       Min divergence: -0.96E-13 at (  17,   1,  19)
       Max VN number:   0.23E+00 at (  75,   1,  40)
       Mesh    2
       Max CFL number:  0.12E-02 at (  28,   1,  15)
       Max divergence:  0.14E-13 at (   1,   1,  31)
       Min divergence: -0.10E-13 at (   5,   1,  34)
       Max VN number:   0.23E+00 at (  75,   1,  40)
       Mesh    3
       Max CFL number:  0.12E-04 at (   1,   1,   5)
       Max divergence:  0.89E-15 at (   1,   1,  11)
       Min divergence: -0.32E-15 at (   2,   1,   8)
       Max VN number:   0.23E+00 at (  75,   1,  40)
       Mesh    4
       Max CFL number:  0.18E-06 at (   1,   1,   6)
       Max divergence:  0.27E-16 at (   1,   1,  31)
       Min divergence: -0.19E-16 at (   2,   1,  38)
       Max VN number:   0.23E+00 at (  75,   1,  40)
 
       Time Step       2   November 13, 2020  11:36:20
       Step Size:    0.395E-02 s, Total Time:      0.008 s
       Pressure Iterations:     10
       Maximum Velocity Error:  0.34E-02 on Mesh   1 at (  76   1  20)
       Maximum Pressure Error:  0.54E-10 on Mesh   1 at (  21   1  35)
       ---------------------------------------------------------------
       Mesh    1
       Max CFL number:  0.24E-01 at (  20,   1,  24)
       Max divergence:  0.89E-13 at (   7,   1,   4)
       Min divergence: -0.95E-13 at (  20,   1,  16)
       Max VN number:   0.23E+00 at (   2,   1,  23)
       Mesh    2
       Max CFL number:  0.61E-02 at (  25,   1,  26)
       Max divergence:  0.31E-13 at (   1,   1,  12)
       Min divergence: -0.24E-13 at (  12,   1,  10)
       Max VN number:   0.23E+00 at (  75,   1,  40)
       Mesh    3
       Max CFL number:  0.12E-03 at (   1,   1,   5)
       Max divergence:  0.41E-14 at (   1,   1,  40)
       Min divergence: -0.33E-14 at (   3,   1,  14)
       Max VN number:   0.23E+00 at (  75,   1,  40)
       Mesh    4
       Max CFL number:  0.57E-05 at (   1,   1,   6)
       Max divergence:  0.24E-15 at (   1,   1,  10)
       Min divergence: -0.18E-15 at (  22,   1,  18)
       Max VN number:   0.23E+00 at (  75,   1,  40)
 
       Time Step       3   November 13, 2020  11:36:20
       Step Size:    0.395E-02 s, Total Time:       0.01 s
       Pressure Iterations:     10
       Maximum Velocity Error:  0.46E-02 on Mesh   1 at (  76   1  20)
       Maximum Pressure Error:  0.54E-10 on Mesh   1 at (  13   1  19)
       ---------------------------------------------------------------
       Mesh    1
       Max CFL number:  0.35E-01 at (  20,   1,  24)
       Max divergence:  0.12E-12 at (  15,   1,   3)
       Min divergence: -0.10E-12 at (  16,   1,   3)
       Max VN number:   0.23E+00 at (  17,   1,  40)
       Mesh    2
       Max CFL number:  0.16E-01 at (  25,   1,  26)
       Max divergence:  0.57E-13 at (   1,   1,  11)
       Min divergence: -0.48E-13 at (   9,   1,   3)
       Max VN number:   0.23E+00 at (   1,   1,  39)
       Mesh    3
       Max CFL number:  0.51E-03 at (   1,   1,   5)
       Max divergence:  0.16E-13 at (   1,   1,  20)
       Min divergence: -0.11E-13 at (   2,   1,  20)
       Max VN number:   0.23E+00 at (  75,   1,  40)
       Mesh    4
       Max CFL number:  0.41E-04 at (   1,   1,   6)
       Max divergence:  0.13E-14 at (   1,   1,  30)
       Min divergence: -0.64E-15 at (  15,   1,  26)
       Max VN number:   0.23E+00 at (  75,   1,  40)
 
       Time Step       4   November 13, 2020  11:36:21
       Step Size:    0.395E-02 s, Total Time:       0.02 s
       Pressure Iterations:     10
       Maximum Velocity Error:  0.54E-02 on Mesh   1 at (  76   1  21)
       Maximum Pressure Error:  0.67E-10 on Mesh   1 at (  17   1  19)
       ---------------------------------------------------------------
       Mesh    1
       Max CFL number:  0.46E-01 at (  20,   1,  24)
       Max divergence:  0.19E-12 at (   4,   1,   2)
       Min divergence: -0.19E-12 at (  19,   1,   7)
       Max VN number:   0.23E+00 at (  27,   1,  39)
       Mesh    2
       Max CFL number:  0.30E-01 at (  25,   1,  26)
       Max divergence:  0.15E-12 at (   1,   1,  10)
       Min divergence: -0.11E-12 at (   2,   1,  14)
       Max VN number:   0.23E+00 at (   1,   1,  31)
       Mesh    3
       Max CFL number:  0.14E-02 at (   1,   1,   5)
       Max divergence:  0.30E-13 at (   1,   1,  10)
       Min divergence: -0.20E-13 at (   4,   1,  30)
       Max VN number:   0.23E+00 at (  75,   1,  40)
       Mesh    4
       Max CFL number:  0.17E-03 at (   1,   1,   6)
       Max divergence:  0.55E-14 at (   1,   1,  21)
       Min divergence: -0.28E-14 at (   2,   1,  11)
       Max VN number:   0.23E+00 at (  75,   1,  40)
 
       Time Step       5   November 13, 2020  11:36:22
       Step Size:    0.395E-02 s, Total Time:       0.02 s
       Pressure Iterations:     10
       Maximum Velocity Error:  0.60E-02 on Mesh   2 at (   0   1  21)
       Maximum Pressure Error:  0.12E-09 on Mesh   1 at (   9   1   7)
       ---------------------------------------------------------------
       Mesh    1
       Max CFL number:  0.57E-01 at (  20,   1,  24)
       Max divergence:  0.20E-12 at (   5,   1,  22)
       Min divergence: -0.21E-12 at (   5,   1,  21)
       Max VN number:   0.23E+00 at (  10,   1,  39)
       Mesh    2
       Max CFL number:  0.49E-01 at (  25,   1,  26)
       Max divergence:  0.18E-12 at (   1,   1,  10)
       Min divergence: -0.11E-12 at (  15,   1,   4)
       Max VN number:   0.23E+00 at (   1,   1,  31)
       Mesh    3
       Max CFL number:  0.30E-02 at (   1,   1,   5)
       Max divergence:  0.43E-13 at (   1,   1,  15)
       Min divergence: -0.35E-13 at (   1,   1,  13)
       Max VN number:   0.23E+00 at (   1,   1,  25)
       Mesh    4
       Max CFL number:  0.50E-03 at (   1,   1,   6)
       Max divergence:  0.78E-14 at (   1,   1,  40)
       Min divergence: -0.55E-14 at (  22,   1,  15)
       Max VN number:   0.23E+00 at (  75,   1,  40)
 
       Time Step       6   November 13, 2020  11:36:23
       Step Size:    0.395E-02 s, Total Time:       0.02 s
       Pressure Iterations:     10
       Maximum Velocity Error:  0.63E-02 on Mesh   2 at (   0   1  20)
       Maximum Pressure Error:  0.17E-09 on Mesh   1 at (  12   1  31)
       ---------------------------------------------------------------
       Mesh    1
       Max CFL number:  0.67E-01 at (  20,   1,  24)
       Max divergence:  0.25E-12 at (  75,   1,  10)
       Min divergence: -0.21E-12 at (   6,   1,  12)
       Max VN number:   0.23E+00 at (   8,   1,  32)
       Mesh    2
       Max CFL number:  0.71E-01 at (  25,   1,  26)
       Max divergence:  0.26E-12 at (   1,   1,  24)
       Min divergence: -0.19E-12 at (   1,   1,  12)
       Max VN number:   0.23E+00 at (   1,   1,  30)
       Mesh    3
       Max CFL number:  0.56E-02 at (   1,   1,   5)
       Max divergence:  0.64E-13 at (   1,   1,  20)
       Min divergence: -0.43E-13 at (   2,   1,  27)
       Max VN number:   0.23E+00 at (   1,   1,  40)
       Mesh    4
       Max CFL number:  0.12E-02 at (   1,   1,   6)
       Max divergence:  0.19E-13 at (   1,   1,  20)
       Min divergence: -0.10E-13 at (  26,   1,  25)
       Max VN number:   0.23E+00 at (  75,   1,  40)
 
       Time Step       7   November 13, 2020  11:36:23
       Step Size:    0.395E-02 s, Total Time:       0.03 s
       Pressure Iterations:     10
       Maximum Velocity Error:  0.64E-02 on Mesh   2 at (   0   1  20)
       Maximum Pressure Error:  0.17E-09 on Mesh   1 at (  25   1   3)
       ---------------------------------------------------------------
       Mesh    1
       Max CFL number:  0.77E-01 at (  20,   1,  24)
       Max divergence:  0.22E-12 at (  46,   1,  32)
       Min divergence: -0.22E-12 at (  48,   1,  31)
       Max VN number:   0.23E+00 at (  75,   1,  20)
       Mesh    2
       Max CFL number:  0.96E-01 at (  25,   1,  26)
       Max divergence:  0.28E-12 at (   1,   1,  11)
       Min divergence: -0.18E-12 at (  22,   1,  30)
       Max VN number:   0.23E+00 at (   1,   1,  20)
       Mesh    3
       Max CFL number:  0.93E-02 at (   1,   1,   5)
       Max divergence:  0.13E-12 at (   1,   1,  25)
       Min divergence: -0.94E-13 at (  13,   1,  18)
       Max VN number:   0.23E+00 at (   1,   1,  31)
       Mesh    4
       Max CFL number:  0.25E-02 at (   1,   1,   5)
       Max divergence:  0.37E-13 at (   1,   1,  10)
       Min divergence: -0.19E-13 at (   8,   1,  13)
       Max VN number:   0.23E+00 at (  75,   1,  40)
 
       Time Step       8   November 13, 2020  11:36:24
       Step Size:    0.395E-02 s, Total Time:       0.03 s
       Pressure Iterations:     10
       Maximum Velocity Error:  0.64E-02 on Mesh   2 at (   0   1  20)
       Maximum Pressure Error:  0.25E-09 on Mesh   2 at (   1   1  40)
       ---------------------------------------------------------------
       Mesh    1
       Max CFL number:  0.88E-01 at (  20,   1,  24)
       Max divergence:  0.41E-12 at (   8,   1,  23)
       Min divergence: -0.41E-12 at (   7,   1,  37)
       Max VN number:   0.23E+00 at (  75,   1,  11)
       Mesh    2
       Max CFL number:  0.12E+00 at (  25,   1,  26)
       Max divergence:  0.20E-12 at (   1,   1,  21)
       Min divergence: -0.22E-12 at (   4,   1,  12)
       Max VN number:   0.23E+00 at (   1,   1,  11)
       Mesh    3
       Max CFL number:  0.14E-01 at (   1,   1,   5)
       Max divergence:  0.20E-12 at (   1,   1,  20)
       Min divergence: -0.93E-13 at (  24,   1,  28)
       Max VN number:   0.23E+00 at (   1,   1,  31)
       Mesh    4
       Max CFL number:  0.47E-02 at (   1,   1,   5)
       Max divergence:  0.76E-13 at (   1,   1,  17)
       Min divergence: -0.29E-13 at (   4,   1,  33)
       Max VN number:   0.23E+00 at (   1,   1,  32)
 
       Time Step       9   November 13, 2020  11:36:25
       Step Size:    0.395E-02 s, Total Time:       0.04 s
       Pressure Iterations:     10
       Maximum Velocity Error:  0.64E-02 on Mesh   2 at (   0   1  20)
       Maximum Pressure Error:  0.39E-09 on Mesh   1 at (  11   1   9)
       ---------------------------------------------------------------
       Mesh    1
       Max CFL number:  0.98E-01 at (  20,   1,  24)
       Max divergence:  0.36E-12 at (  75,   1,   7)
       Min divergence: -0.37E-12 at (  23,   1,  11)
       Max VN number:   0.23E+00 at (  75,   1,  20)
       Mesh    2
       Max CFL number:  0.15E+00 at (  25,   1,  26)
       Max divergence:  0.30E-12 at (   1,   1,  39)
       Min divergence: -0.21E-12 at (  24,   1,  14)
       Max VN number:   0.23E+00 at (   1,   1,  21)
       Mesh    3
       Max CFL number:  0.20E-01 at (   1,   1,   5)
       Max divergence:  0.16E-12 at (   1,   1,  14)
       Min divergence: -0.11E-12 at (   3,   1,  22)
       Max VN number:   0.23E+00 at (   1,   1,  11)
       Mesh    4
       Max CFL number:  0.79E-02 at (   1,   1,   5)
       Max divergence:  0.64E-13 at (   1,   1,   7)
       Min divergence: -0.54E-13 at (   1,   1,  13)
       Max VN number:   0.23E+00 at (   1,   1,  32)
 
       Time Step      10   November 13, 2020  11:36:26
       Step Size:    0.395E-02 s, Total Time:       0.04 s
       Pressure Iterations:     10
       Maximum Velocity Error:  0.63E-02 on Mesh   2 at (   0   1  20)
       Maximum Pressure Error:  0.56E-09 on Mesh   1 at (  39   1  29)
       ---------------------------------------------------------------
       Mesh    1
       Max CFL number:  0.11E+00 at (  20,   1,  24)
       Max divergence:  0.46E-12 at (  56,   1,  28)
       Min divergence: -0.44E-12 at (  46,   1,   2)
       Max VN number:   0.23E+00 at (  75,   1,  31)
       Mesh    2
       Max CFL number:  0.17E+00 at (  25,   1,  26)
       Max divergence:  0.33E-12 at (   3,   1,   9)
       Min divergence: -0.36E-12 at (   4,   1,  28)
       Max VN number:   0.23E+00 at (   1,   1,  20)
       Mesh    3
       Max CFL number:  0.27E-01 at (   1,   1,   5)
       Max divergence:  0.38E-12 at (   1,   1,  37)
       Min divergence: -0.21E-12 at (   2,   1,  36)
       Max VN number:   0.23E+00 at (   1,   1,  31)
       Mesh    4
       Max CFL number:  0.12E-01 at (   1,   1,   5)
       Max divergence:  0.95E-13 at (   2,   1,  27)
       Min divergence: -0.75E-13 at (   1,   1,  27)
       Max VN number:   0.23E+00 at (   1,   1,  20)
 
       Time Step      20   November 13, 2020  11:36:33
       Step Size:    0.395E-02 s, Total Time:       0.08 s
       Pressure Iterations:      4
       Maximum Velocity Error:  0.58E-02 on Mesh   1 at (  76   1  20)
       Maximum Pressure Error:  0.11E-08 on Mesh   2 at (   1   1   1)
       ---------------------------------------------------------------
       Mesh    1
       Max CFL number:  0.22E+00 at (  20,   1,  23)
       Max divergence:  0.57E-12 at (  75,   1,  11)
       Min divergence: -0.45E-12 at (  14,   1,  12)
       Max VN number:   0.23E+00 at (  75,   1,  10)
       Mesh    2
       Max CFL number:  0.40E+00 at (  25,   1,  26)
       Max divergence:  0.48E-12 at (   1,   1,  37)
       Min divergence: -0.36E-12 at (  71,   1,  33)
       Max VN number:   0.23E+00 at (   1,   1,  10)
       Mesh    3
       Max CFL number:  0.11E+00 at (   1,   1,   5)
       Max divergence:  0.49E-12 at (   1,   1,  17)
       Min divergence: -0.40E-12 at (   8,   1,  21)
       Max VN number:   0.23E+00 at (   1,   1,  20)
       Mesh    4
       Max CFL number:  0.96E-01 at (   1,   1,   5)
       Max divergence:  0.23E-12 at (   1,   1,  17)
       Min divergence: -0.16E-12 at (   1,   1,  18)
       Max VN number:   0.23E+00 at (   1,   1,  11)
 
       Time Step      30   November 13, 2020  11:36:40
       Step Size:    0.257E-02 s, Total Time:       0.11 s
       Pressure Iterations:      4
       Maximum Velocity Error:  0.26E-02 on Mesh   1 at (  76   1  20)
       Maximum Pressure Error:  0.18E-08 on Mesh   2 at (   1   1  40)
       ---------------------------------------------------------------
       Mesh    1
       Max CFL number:  0.21E+00 at (  20,   1,  23)
       Max divergence:  0.57E-12 at (  14,   1,  29)
       Min divergence: -0.45E-12 at (  15,   1,   6)
       Max VN number:   0.15E+00 at (  75,   1,  21)
       Mesh    2
       Max CFL number:  0.45E+00 at (  25,   1,  27)
       Max divergence:  0.38E-12 at (  75,   1,  10)
       Min divergence: -0.27E-12 at (  42,   1,  23)
       Max VN number:   0.15E+00 at (   1,   1,  20)
       Mesh    3
       Max CFL number:  0.13E+00 at (   1,   1,   5)
       Max divergence:  0.27E-12 at (  11,   1,  17)
       Min divergence: -0.24E-12 at (  17,   1,  29)
       Max VN number:   0.15E+00 at (   1,   1,  11)
       Mesh    4
       Max CFL number:  0.13E+00 at (   1,   1,   5)
       Max divergence:  0.11E-12 at (   1,   1,   9)
       Min divergence: -0.11E-12 at (  15,   1,  38)
       Max VN number:   0.15E+00 at (   1,   1,  10)
 
       Time Step      40   November 13, 2020  11:36:47
       Step Size:    0.204E-02 s, Total Time:       0.13 s
       Pressure Iterations:      4
       Maximum Velocity Error:  0.22E-02 on Mesh   1 at (  76   1  21)
       Maximum Pressure Error:  0.87E-09 on Mesh   2 at (   1   1  40)
       ---------------------------------------------------------------
       Mesh    1
       Max CFL number:  0.20E+00 at (  20,   1,  23)
       Max divergence:  0.38E-12 at (  17,   1,  39)
       Min divergence: -0.37E-12 at (  18,   1,  39)
       Max VN number:   0.12E+00 at (  75,   1,  31)
       Mesh    2
       Max CFL number:  0.48E+00 at (  25,   1,  27)
       Max divergence:  0.31E-12 at (  75,   1,  30)
       Min divergence: -0.21E-12 at (  35,   1,  32)
       Max VN number:   0.12E+00 at (   2,   1,  30)
       Mesh    3
       Max CFL number:  0.14E+00 at (   1,   1,   5)
       Max divergence:  0.21E-12 at (  25,   1,  24)
       Min divergence: -0.21E-12 at (  13,   1,  25)
       Max VN number:   0.12E+00 at (   2,   1,  11)
       Mesh    4
       Max CFL number:  0.14E+00 at (   1,   1,   5)
       Max divergence:  0.12E-12 at (   3,   1,  14)
       Min divergence: -0.98E-13 at (   6,   1,   7)
       Max VN number:   0.12E+00 at (   2,   1,  31)
 
       Time Step      50   November 13, 2020  11:36:54
       Step Size:    0.164E-02 s, Total Time:       0.15 s
       Pressure Iterations:      4
       Maximum Velocity Error:  0.34E-02 on Mesh   1 at (  76   1  21)
       Maximum Pressure Error:  0.45E-09 on Mesh   1 at (  75   1   8)
       ---------------------------------------------------------------
       Mesh    1
       Max CFL number:  0.19E+00 at (  20,   1,  23)
       Max divergence:  0.25E-12 at (  75,   1,   6)
       Min divergence: -0.20E-12 at (  27,   1,  23)
       Max VN number:   0.95E-01 at (  75,   1,  11)
       Mesh    2
       Max CFL number:  0.45E+00 at (  25,   1,  27)
       Max divergence:  0.18E-12 at (   8,   1,  29)
       Min divergence: -0.19E-12 at (   4,   1,  30)
       Max VN number:   0.95E-01 at (   4,   1,  20)
       Mesh    3
       Max CFL number:  0.13E+00 at (   1,   1,   5)
       Max divergence:  0.11E-12 at (  75,   1,  11)
       Min divergence: -0.92E-13 at (   3,   1,  11)
       Max VN number:   0.95E-01 at (   3,   1,  30)
       Mesh    4
       Max CFL number:  0.14E+00 at (   1,   1,   5)
       Max divergence:  0.66E-13 at (   1,   1,  10)
       Min divergence: -0.68E-13 at (   1,   1,   3)
       Max VN number:   0.95E-01 at (   3,   1,  31)
 
       Time Step      60   November 13, 2020  11:37:00
       Step Size:    0.164E-02 s, Total Time:       0.17 s
       Pressure Iterations:      4
       Maximum Velocity Error:  0.28E-02 on Mesh   1 at (  76   1  21)
       Maximum Pressure Error:  0.24E-09 on Mesh   1 at (   5   1  22)
       ---------------------------------------------------------------
       Mesh    1
       Max CFL number:  0.21E+00 at (  20,   1,  23)
       Max divergence:  0.14E-12 at (   3,   1,  28)
       Min divergence: -0.17E-12 at (  13,   1,  23)
       Max VN number:   0.95E-01 at (  75,   1,  32)
       Mesh    2
       Max CFL number:  0.48E+00 at (  25,   1,  27)
       Max divergence:  0.13E-12 at (   1,   1,  14)
       Min divergence: -0.94E-13 at (  22,   1,  31)
       Max VN number:   0.95E-01 at (   5,   1,  20)
       Mesh    3
       Max CFL number:  0.15E+00 at (   1,   1,   5)
       Max divergence:  0.69E-13 at (   1,   1,  30)
       Min divergence: -0.78E-13 at (   2,   1,  30)
       Max VN number:   0.95E-01 at (   5,   1,  30)
       Mesh    4
       Max CFL number:  0.15E+00 at (   1,   1,   5)
       Max divergence:  0.35E-13 at (  28,   1,  33)
       Min divergence: -0.40E-13 at (   2,   1,  40)
       Max VN number:   0.95E-01 at (   4,   1,  31)
 
       Time Step      70   November 13, 2020  11:37:06
       Step Size:    0.147E-02 s, Total Time:       0.19 s
       Pressure Iterations:      4
       Maximum Velocity Error:  0.62E-03 on Mesh   1 at (  76   1  21)
       Maximum Pressure Error:  0.12E-09 on Mesh   1 at (  56   1   8)
       ---------------------------------------------------------------
       Mesh    1
       Max CFL number:  0.20E+00 at (  20,   1,  25)
       Max divergence:  0.76E-13 at (  49,   1,  34)
       Min divergence: -0.82E-13 at (  19,   1,   3)
       Max VN number:   0.86E-01 at (  75,   1,  31)
       Mesh    2
       Max CFL number:  0.45E+00 at (  25,   1,  27)
       Max divergence:  0.68E-13 at (   3,   1,  19)
       Min divergence: -0.61E-13 at (  31,   1,  11)
       Max VN number:   0.86E-01 at (   6,   1,  20)
       Mesh    3
       Max CFL number:  0.14E+00 at (   1,   1,   5)
       Max divergence:  0.44E-13 at (   4,   1,  12)
       Min divergence: -0.51E-13 at (  10,   1,  11)
       Max VN number:   0.86E-01 at (   5,   1,  31)
       Mesh    4
       Max CFL number:  0.14E+00 at (   1,   1,   5)
       Max divergence:  0.32E-13 at (  12,   1,  29)
       Min divergence: -0.43E-13 at (   9,   1,  30)
       Max VN number:   0.86E-01 at (   5,   1,  31)
 
       Time Step      80   November 13, 2020  11:37:13
       Step Size:    0.147E-02 s, Total Time:       0.20 s
       Pressure Iterations:      4
       Maximum Velocity Error:  0.20E-02 on Mesh   1 at (  76   1  20)
       Maximum Pressure Error:  0.14E-09 on Mesh   1 at (   5   1  33)
       ---------------------------------------------------------------
       Mesh    1
       Max CFL number:  0.22E+00 at (  20,   1,  25)
       Max divergence:  0.13E-12 at (  75,   1,  30)
       Min divergence: -0.87E-13 at (  20,   1,  37)
       Max VN number:   0.86E-01 at (  75,   1,  32)
       Mesh    2
       Max CFL number:  0.47E+00 at (  25,   1,  27)
       Max divergence:  0.11E-12 at (  26,   1,  27)
       Min divergence: -0.92E-13 at (   8,   1,  32)
       Max VN number:   0.86E-01 at (   7,   1,  20)
       Mesh    3
       Max CFL number:  0.14E+00 at (   1,   1,   5)
       Max divergence:  0.65E-13 at (   4,   1,  11)
       Min divergence: -0.44E-13 at (   9,   1,  12)
       Max VN number:   0.86E-01 at (   6,   1,  20)
       Mesh    4
       Max CFL number:  0.14E+00 at (   1,   1,   5)
       Max divergence:  0.37E-13 at (   5,   1,  27)
       Min divergence: -0.41E-13 at (   9,   1,  11)
       Max VN number:   0.86E-01 at (   5,   1,  31)
 
       Time Step      90   November 13, 2020  11:37:18
       Step Size:    0.147E-02 s, Total Time:       0.21 s
       Pressure Iterations:      4
       Maximum Velocity Error:  0.29E-02 on Mesh   2 at (   0   1  20)
       Maximum Pressure Error:  0.26E-09 on Mesh   2 at (   1   1  29)
       ---------------------------------------------------------------
       Mesh    1
       Max CFL number:  0.25E+00 at (  20,   1,  25)
       Max divergence:  0.23E-12 at (  75,   1,   5)
       Min divergence: -0.16E-12 at (  10,   1,  12)
       Max VN number:   0.86E-01 at (  75,   1,  20)
       Mesh    2
       Max CFL number:  0.49E+00 at (  25,   1,  27)
       Max divergence:  0.19E-12 at (   1,   1,  10)
       Min divergence: -0.12E-12 at (  19,   1,  26)
       Max VN number:   0.86E-01 at (   9,   1,  21)
       Mesh    3
       Max CFL number:  0.15E+00 at (   1,   1,   5)
       Max divergence:  0.14E-12 at (   1,   1,  23)
       Min divergence: -0.82E-13 at (   2,   1,  40)
       Max VN number:   0.86E-01 at (   7,   1,  20)
       Mesh    4
       Max CFL number:  0.15E+00 at (   1,   1,   5)
       Max divergence:  0.40E-13 at (   6,   1,  10)
       Min divergence: -0.54E-13 at (   7,   1,  11)
       Max VN number:   0.86E-01 at (   5,   1,  31)
 
       Time Step     100   November 13, 2020  11:37:24
       Step Size:    0.132E-02 s, Total Time:       0.23 s
       Pressure Iterations:      4
       Maximum Velocity Error:  0.20E-02 on Mesh   2 at (   0   1  20)
       Maximum Pressure Error:  0.41E-09 on Mesh   1 at (  75   1  10)
       ---------------------------------------------------------------
       Mesh    1
       Max CFL number:  0.24E+00 at (  20,   1,  25)
       Max divergence:  0.15E-12 at (  75,   1,  31)
       Min divergence: -0.14E-12 at (  30,   1,  24)
       Max VN number:   0.77E-01 at (  75,   1,  21)
       Mesh    2
       Max CFL number:  0.47E+00 at (  25,   1,  27)
       Max divergence:  0.18E-12 at (   1,   1,  20)
       Min divergence: -0.14E-12 at (  25,   1,  26)
       Max VN number:   0.77E-01 at (  10,   1,  10)
       Mesh    3
       Max CFL number:  0.14E+00 at (   1,   1,   5)
       Max divergence:  0.18E-12 at (   1,   1,  30)
       Min divergence: -0.14E-12 at (  10,   1,  10)
       Max VN number:   0.77E-01 at (   7,   1,  21)
       Mesh    4
       Max CFL number:  0.14E+00 at (   1,   1,   5)
       Max divergence:  0.65E-13 at (   1,   1,  37)
       Min divergence: -0.79E-13 at (  16,   1,  13)
       Max VN number:   0.77E-01 at (   5,   1,  31)
 
       Time Step     200   November 13, 2020  11:38:14
       Step Size:    0.957E-03 s, Total Time:       0.34 s
       Pressure Iterations:      4
       Maximum Velocity Error:  0.15E-02 on Mesh   1 at (  76   1  24)
       Maximum Pressure Error:  0.29E-09 on Mesh   2 at (  27   1  16)
       ---------------------------------------------------------------
       Mesh    1
       Max CFL number:  0.27E+00 at (  20,   1,  25)
       Max divergence:  0.12E-12 at (  71,   1,  18)
       Min divergence: -0.11E-12 at (  58,   1,  29)
       Max VN number:   0.56E-01 at (  75,   1,  40)
       Mesh    2
       Max CFL number:  0.47E+00 at (  25,   1,  27)
       Max divergence:  0.13E-12 at (  17,   1,   6)
       Min divergence: -0.15E-12 at (  25,   1,  15)
       Max VN number:   0.56E-01 at (  17,   1,  21)
       Mesh    3
       Max CFL number:  0.16E+00 at (   1,   1,   5)
       Max divergence:  0.80E-13 at (  72,   1,  33)
       Min divergence: -0.66E-13 at (  24,   1,  20)
       Max VN number:   0.56E-01 at (  12,   1,  30)
       Mesh    4
       Max CFL number:  0.16E+00 at (   1,   1,   6)
       Max divergence:  0.55E-13 at (   1,   1,  38)
       Min divergence: -0.55E-13 at (  27,   1,  11)
       Max VN number:   0.56E-01 at (   6,   1,  31)
 
       Time Step     300   November 13, 2020  11:38:59
       Step Size:    0.774E-03 s, Total Time:       0.43 s
       Pressure Iterations:      1
       Maximum Velocity Error:  0.46E-04 on Mesh   1 at (  76   1  25)
       Maximum Pressure Error:  0.44E-09 on Mesh   2 at (  27   1  15)
       ---------------------------------------------------------------
       Mesh    1
       Max CFL number:  0.28E+00 at (  20,   1,  25)
       Max divergence:  0.76E-13 at (   4,   1,  28)
       Min divergence: -0.67E-13 at (   6,   1,   3)
       Max VN number:   0.45E-01 at (  75,   1,  31)
       Mesh    2
       Max CFL number:  0.45E+00 at (  25,   1,  27)
       Max divergence:  0.22E-12 at (  26,   1,  14)
       Min divergence: -0.16E-12 at (  27,   1,  14)
       Max VN number:   0.45E-01 at (  19,   1,  21)
       Mesh    3
       Max CFL number:  0.16E+00 at (   1,   1,   6)
       Max divergence:  0.53E-13 at (  45,   1,  32)
       Min divergence: -0.59E-13 at (  60,   1,  31)
       Max VN number:   0.45E-01 at (  12,   1,  30)
       Mesh    4
       Max CFL number:  0.16E+00 at (   1,   1,   6)
       Max divergence:  0.57E-13 at (   6,   1,  15)
       Min divergence: -0.47E-13 at (  47,   1,   9)
       Max VN number:   0.45E-01 at (   7,   1,  31)
 
       Time Step     400   November 13, 2020  11:39:41
       Step Size:    0.697E-03 s, Total Time:       0.50 s
       Pressure Iterations:      4
       Maximum Velocity Error:  0.72E-03 on Mesh   1 at (  76   1  14)
       Maximum Pressure Error:  0.58E-09 on Mesh   2 at (  27   1  27)
       ---------------------------------------------------------------
       Mesh    1
       Max CFL number:  0.29E+00 at (  20,   1,  25)
       Max divergence:  0.11E-12 at (  75,   1,  31)
       Min divergence: -0.85E-13 at (  22,   1,  23)
       Max VN number:   0.40E-01 at (  75,   1,  31)
       Mesh    2
       Max CFL number:  0.46E+00 at (  25,   1,  27)
       Max divergence:  0.18E-12 at (  26,   1,  14)
       Min divergence: -0.29E-12 at (  27,   1,  14)
       Max VN number:   0.40E-01 at (  19,   1,  21)
       Mesh    3
       Max CFL number:  0.16E+00 at (   1,   1,   5)
       Max divergence:  0.71E-13 at (   9,   1,  18)
       Min divergence: -0.65E-13 at (  53,   1,  21)
       Max VN number:   0.40E-01 at (  12,   1,  30)
       Mesh    4
       Max CFL number:  0.16E+00 at (   1,   1,   6)
       Max divergence:  0.55E-13 at (   6,   1,  33)
       Min divergence: -0.68E-13 at (  47,   1,  15)
       Max VN number:   0.40E-01 at (   7,   1,  31)
 
       Time Step     500   November 13, 2020  11:40:21
       Step Size:    0.627E-03 s, Total Time:       0.57 s
       Pressure Iterations:      4
       Maximum Velocity Error:  0.54E-03 on Mesh   2 at (   0   1  40)
       Maximum Pressure Error:  0.79E-09 on Mesh   2 at (  27   1  27)
       ---------------------------------------------------------------
       Mesh    1
       Max CFL number:  0.30E+00 at (  20,   1,  25)
       Max divergence:  0.11E-12 at (  75,   1,  19)
       Min divergence: -0.98E-13 at (  19,   1,  16)
       Max VN number:   0.36E-01 at (  75,   1,  31)
       Mesh    2
       Max CFL number:  0.46E+00 at (  25,   1,  14)
       Max divergence:  0.19E-12 at (  26,   1,  27)
       Min divergence: -0.24E-12 at (  27,   1,  14)
       Max VN number:   0.36E-01 at (  19,   1,  21)
       Mesh    3
       Max CFL number:  0.17E+00 at (   1,   1,   6)
       Max divergence:  0.92E-13 at (  17,   1,   6)
       Min divergence: -0.91E-13 at (  67,   1,  13)
       Max VN number:   0.36E-01 at (  12,   1,  30)
       Mesh    4
       Max CFL number:  0.16E+00 at (   1,   1,   6)
       Max divergence:  0.86E-13 at (   8,   1,  11)
       Min divergence: -0.87E-13 at (  27,   1,  25)
       Max VN number:   0.36E-01 at (   7,   1,  31)
 
       Time Step     600   November 13, 2020  11:40:58
       Step Size:    0.627E-03 s, Total Time:       0.63 s
       Pressure Iterations:      1
       Maximum Velocity Error:  0.13E-03 on Mesh   2 at (  76   1  21)
       Maximum Pressure Error:  0.96E-09 on Mesh   2 at (  27   1  27)
       ---------------------------------------------------------------
       Mesh    1
       Max CFL number:  0.32E+00 at (  20,   1,  25)
       Max divergence:  0.97E-13 at (  75,   1,  18)
       Min divergence: -0.96E-13 at (   5,   1,  34)
       Max VN number:   0.36E-01 at (  75,   1,  31)
       Mesh    2
       Max CFL number:  0.50E+00 at (  25,   1,  14)
       Max divergence:  0.30E-12 at (  26,   1,  14)
       Min divergence: -0.34E-12 at (  27,   1,  14)
       Max VN number:   0.36E-01 at (  19,   1,  21)
       Mesh    3
       Max CFL number:  0.20E+00 at (   1,   1,   7)
       Max divergence:  0.94E-13 at (  12,   1,  26)
       Min divergence: -0.86E-13 at (  48,   1,  23)
       Max VN number:   0.36E-01 at (  12,   1,  21)
       Mesh    4
       Max CFL number:  0.18E+00 at (   1,   1,   6)
       Max divergence:  0.89E-13 at (  50,   1,  15)
       Min divergence: -0.93E-13 at (   1,   1,  27)
       Max VN number:   0.36E-01 at (   7,   1,  31)
 
       Time Step     700   November 13, 2020  11:41:35
       Step Size:    0.564E-03 s, Total Time:       0.69 s
       Pressure Iterations:      1
       Maximum Velocity Error:  0.25E-03 on Mesh   2 at (  76   1  21)
       Maximum Pressure Error:  0.12E-08 on Mesh   2 at (  27   1  27)
       ---------------------------------------------------------------
       Mesh    1
       Max CFL number:  0.31E+00 at (  20,   1,  25)
       Max divergence:  0.88E-13 at (   2,   1,  15)
       Min divergence: -0.90E-13 at (  18,   1,  20)
       Max VN number:   0.33E-01 at (  75,   1,  31)
       Mesh    2
       Max CFL number:  0.48E+00 at (  25,   1,  14)
       Max divergence:  0.36E-12 at (  26,   1,  14)
       Min divergence: -0.40E-12 at (  27,   1,  14)
       Max VN number:   0.33E-01 at (  19,   1,  21)
       Mesh    3
       Max CFL number:  0.20E+00 at (   1,   1,   7)
       Max divergence:  0.93E-13 at (  48,   1,  18)
       Min divergence: -0.89E-13 at (  37,   1,   5)
       Max VN number:   0.33E-01 at (  12,   1,  21)
       Mesh    4
       Max CFL number:  0.17E+00 at (   1,   1,   8)
       Max divergence:  0.93E-13 at (   4,   1,  15)
       Min divergence: -0.95E-13 at (  16,   1,  39)
       Max VN number:   0.33E-01 at (   7,   1,  31)
 
       Time Step     800   November 13, 2020  11:42:11
       Step Size:    0.507E-03 s, Total Time:       0.75 s
       Pressure Iterations:      1
       Maximum Velocity Error:  0.27E-03 on Mesh   2 at (   0   1  16)
       Maximum Pressure Error:  0.14E-08 on Mesh   2 at (  27   1  27)
       ---------------------------------------------------------------
       Mesh    1
       Max CFL number:  0.30E+00 at (  20,   1,  25)
       Max divergence:  0.91E-13 at (  75,   1,  13)
       Min divergence: -0.95E-13 at (  42,   1,  11)
       Max VN number:   0.29E-01 at (  75,   1,  31)
       Mesh    2
       Max CFL number:  0.45E+00 at (  25,   1,  14)
       Max divergence:  0.31E-12 at (  26,   1,  14)
       Min divergence: -0.46E-12 at (  27,   1,  14)
       Max VN number:   0.29E-01 at (  19,   1,  21)
       Mesh    3
       Max CFL number:  0.22E+00 at (   1,   1,   9)
       Max divergence:  0.83E-13 at (  30,   1,  15)
       Min divergence: -0.98E-13 at (  59,   1,  13)
       Max VN number:   0.29E-01 at (  12,   1,  21)
       Mesh    4
       Max CFL number:  0.16E+00 at (   1,   1,  14)
       Max divergence:  0.88E-13 at (  32,   1,  15)
       Min divergence: -0.99E-13 at (  52,   1,  11)
       Max VN number:   0.29E-01 at (   7,   1,  31)
 
       Time Step     900   November 13, 2020  11:42:45
       Step Size:    0.507E-03 s, Total Time:       0.80 s
       Pressure Iterations:      1
       Maximum Velocity Error:  0.48E-03 on Mesh   2 at (  76   1  17)
       Maximum Pressure Error:  0.15E-08 on Mesh   2 at (  27   1  27)
       ---------------------------------------------------------------
       Mesh    1
       Max CFL number:  0.31E+00 at (  20,   1,  25)
       Max divergence:  0.96E-13 at (  14,   1,  27)
       Min divergence: -0.88E-13 at (  18,   1,  19)
       Max VN number:   0.29E-01 at (  75,   1,  31)
       Mesh    2
       Max CFL number:  0.47E+00 at (  25,   1,  14)
       Max divergence:  0.37E-12 at (  26,   1,  14)
       Min divergence: -0.48E-12 at (  27,   1,  14)
       Max VN number:   0.29E-01 at (  19,   1,  21)
       Mesh    3
       Max CFL number:  0.27E+00 at (   1,   1,  12)
       Max divergence:  0.10E-12 at (  35,   1,  23)
       Min divergence: -0.11E-12 at (  17,   1,  37)
       Max VN number:   0.29E-01 at (  12,   1,  21)
       Mesh    4
       Max CFL number:  0.17E+00 at (   1,   1,  15)
       Max divergence:  0.92E-13 at (  49,   1,  17)
       Min divergence: -0.99E-13 at (  34,   1,  21)
       Max VN number:   0.29E-01 at (   7,   1,  31)
 
       Time Step    1000   November 13, 2020  11:43:21
       Step Size:    0.507E-03 s, Total Time:       0.85 s
       Pressure Iterations:      1
       Maximum Velocity Error:  0.41E-03 on Mesh   2 at (  76   1  15)
       Maximum Pressure Error:  0.17E-08 on Mesh   2 at (  27   1  27)
       ---------------------------------------------------------------
       Mesh    1
       Max CFL number:  0.33E+00 at (  20,   1,  25)
       Max divergence:  0.93E-13 at (  58,   1,  12)
       Min divergence: -0.89E-13 at (  59,   1,  12)
       Max VN number:   0.29E-01 at (  75,   1,  31)
       Mesh    2
       Max CFL number:  0.49E+00 at (  25,   1,  14)
       Max divergence:  0.43E-12 at (  26,   1,  14)
       Min divergence: -0.54E-12 at (  27,   1,  14)
       Max VN number:   0.29E-01 at (  19,   1,  21)
       Mesh    3
       Max CFL number:  0.33E+00 at (   1,   1,  11)
       Max divergence:  0.19E-12 at (   1,   1,   4)
       Min divergence: -0.12E-12 at (   4,   1,   4)
       Max VN number:   0.29E-01 at (  12,   1,  21)
       Mesh    4
       Max CFL number:  0.18E+00 at (   1,   1,  15)
       Max divergence:  0.98E-13 at (   5,   1,  28)
       Min divergence: -0.10E-12 at (  27,   1,  15)
       Max VN number:   0.29E-01 at (   7,   1,  31)
 
       Time Step    1100   November 13, 2020  11:43:55
       Step Size:    0.457E-03 s, Total Time:       0.90 s
       Pressure Iterations:      1
       Maximum Velocity Error:  0.45E-03 on Mesh   2 at (  76   1  14)
       Maximum Pressure Error:  0.18E-08 on Mesh   2 at (  27   1  27)
       ---------------------------------------------------------------
       Mesh    1
       Max CFL number:  0.31E+00 at (  20,   1,  25)
       Max divergence:  0.10E-12 at (  65,   1,   7)
       Min divergence: -0.91E-13 at (  52,   1,   7)
       Max VN number:   0.27E-01 at (  75,   1,  31)
       Mesh    2
       Max CFL number:  0.46E+00 at (  25,   1,  14)
       Max divergence:  0.32E-12 at (  26,   1,  14)
       Min divergence: -0.47E-12 at (  27,   1,  14)
       Max VN number:   0.27E-01 at (  19,   1,  21)
       Mesh    3
       Max CFL number:  0.33E+00 at (   1,   1,  10)
       Max divergence:  0.18E-12 at (   1,   1,  11)
       Min divergence: -0.16E-12 at (   5,   1,  38)
       Max VN number:   0.27E-01 at (  12,   1,  21)
       Mesh    4
       Max CFL number:  0.17E+00 at (   1,   1,  15)
       Max divergence:  0.10E-12 at (  25,   1,  20)
       Min divergence: -0.12E-12 at (  52,   1,  30)
       Max VN number:   0.27E-01 at (   7,   1,  31)
 
       Time Step    1200   November 13, 2020  11:44:29
       Step Size:    0.457E-03 s, Total Time:       0.94 s
       Pressure Iterations:      1
       Maximum Velocity Error:  0.49E-03 on Mesh   2 at (  76   1  29)
       Maximum Pressure Error:  0.19E-08 on Mesh   2 at (  27   1  15)
       ---------------------------------------------------------------
       Mesh    1
       Max CFL number:  0.32E+00 at (  20,   1,  25)
       Max divergence:  0.11E-12 at (  21,   1,  24)
       Min divergence: -0.93E-13 at (  31,   1,  13)
       Max VN number:   0.27E-01 at (  75,   1,  31)
       Mesh    2
       Max CFL number:  0.47E+00 at (  25,   1,  14)
       Max divergence:  0.38E-12 at (  26,   1,  14)
       Min divergence: -0.57E-12 at (  27,   1,  14)
       Max VN number:   0.27E-01 at (  19,   1,  21)
       Mesh    3
       Max CFL number:  0.35E+00 at (   1,   1,   9)
       Max divergence:  0.14E-12 at (   1,   1,   2)
       Min divergence: -0.17E-12 at (  11,   1,   9)
       Max VN number:   0.27E-01 at (  12,   1,  21)
       Mesh    4
       Max CFL number:  0.17E+00 at (   1,   1,  15)
       Max divergence:  0.13E-12 at (  50,   1,  33)
       Min divergence: -0.11E-12 at (  10,   1,  26)
       Max VN number:   0.27E-01 at (   7,   1,  31)
 
       Time Step    1300   November 13, 2020  11:45:03
       Step Size:    0.457E-03 s, Total Time:       0.99 s
       Pressure Iterations:      1
       Maximum Velocity Error:  0.43E-03 on Mesh   2 at (  76   1  12)
       Maximum Pressure Error:  0.21E-08 on Mesh   2 at (  27   1  15)
       ---------------------------------------------------------------
       Mesh    1
       Max CFL number:  0.33E+00 at (  20,   1,  25)
       Max divergence:  0.82E-13 at (  16,   1,   9)
       Min divergence: -0.89E-13 at (  49,   1,  39)
       Max VN number:   0.27E-01 at (  75,   1,  31)
       Mesh    2
       Max CFL number:  0.49E+00 at (  25,   1,  14)
       Max divergence:  0.38E-12 at (  26,   1,  14)
       Min divergence: -0.54E-12 at (  27,   1,  14)
       Max VN number:   0.27E-01 at (  19,   1,  21)
       Mesh    3
       Max CFL number:  0.37E+00 at (   1,   1,   8)
       Max divergence:  0.17E-12 at (  18,   1,   3)
       Min divergence: -0.20E-12 at (  17,   1,   3)
       Max VN number:   0.27E-01 at (  12,   1,  21)
       Mesh    4
       Max CFL number:  0.18E+00 at (   1,   1,  15)
       Max divergence:  0.98E-13 at (  28,   1,  12)
       Min divergence: -0.11E-12 at (  27,   1,  30)
       Max VN number:   0.27E-01 at (   7,   1,  31)
 
       Time Step    1400   November 13, 2020  11:45:36
       Step Size:    0.411E-03 s, Total Time:       1.03 s
       Pressure Iterations:      1
       Maximum Velocity Error:  0.42E-03 on Mesh   2 at (  76   1  11)
       Maximum Pressure Error:  0.23E-08 on Mesh   2 at (  27   1  15)
       ---------------------------------------------------------------
       Mesh    1
       Max CFL number:  0.30E+00 at (  20,   1,  25)
       Max divergence:  0.11E-12 at (  23,   1,  27)
       Min divergence: -0.85E-13 at (  36,   1,   5)
       Max VN number:   0.24E-01 at (  75,   1,  31)
       Mesh    2
       Max CFL number:  0.45E+00 at (  25,   1,  14)
       Max divergence:  0.39E-12 at (  26,   1,  14)
       Min divergence: -0.58E-12 at (  27,   1,  14)
       Max VN number:   0.24E-01 at (  19,   1,  21)
       Mesh    3
       Max CFL number:  0.35E+00 at (   4,   1,   8)
       Max divergence:  0.14E-12 at (  19,   1,  39)
       Min divergence: -0.14E-12 at (  20,   1,  37)
       Max VN number:   0.24E-01 at (  12,   1,  21)
       Mesh    4
       Max CFL number:  0.16E+00 at (   6,   1,  14)
       Max divergence:  0.11E-12 at (  28,   1,  30)
       Min divergence: -0.11E-12 at (  27,   1,   5)
       Max VN number:   0.24E-01 at (   7,   1,  31)
 
       Time Step    1500   November 13, 2020  11:46:09
       Step Size:    0.411E-03 s, Total Time:       1.07 s
       Pressure Iterations:      1
       Maximum Velocity Error:  0.44E-03 on Mesh   3 at (   0   1  23)
       Maximum Pressure Error:  0.24E-08 on Mesh   2 at (  27   1  15)
       ---------------------------------------------------------------
       Mesh    1
       Max CFL number:  0.31E+00 at (  20,   1,  25)
       Max divergence:  0.10E-12 at (  33,   1,  27)
       Min divergence: -0.86E-13 at (  29,   1,  28)
       Max VN number:   0.24E-01 at (  75,   1,  31)
       Mesh    2
       Max CFL number:  0.46E+00 at (  25,   1,  14)
       Max divergence:  0.44E-12 at (  26,   1,  14)
       Min divergence: -0.59E-12 at (  27,   1,  14)
       Max VN number:   0.24E-01 at (  19,   1,  21)
       Mesh    3
       Max CFL number:  0.36E+00 at (  12,   1,   8)
       Max divergence:  0.17E-12 at (  24,   1,  38)
       Min divergence: -0.15E-12 at (  31,   1,  37)
       Max VN number:   0.24E-01 at (  12,   1,  21)
       Mesh    4
       Max CFL number:  0.17E+00 at (   1,   1,  15)
       Max divergence:  0.11E-12 at (  49,   1,  24)
       Min divergence: -0.10E-12 at (  47,   1,  15)
       Max VN number:   0.24E-01 at (   7,   1,  31)
 
       Time Step    1600   November 13, 2020  11:46:41
       Step Size:    0.411E-03 s, Total Time:       1.11 s
       Pressure Iterations:      1
       Maximum Velocity Error:  0.46E-03 on Mesh   2 at (  76   1  11)
       Maximum Pressure Error:  0.26E-08 on Mesh   2 at (  27   1  15)
       ---------------------------------------------------------------
       Mesh    1
       Max CFL number:  0.31E+00 at (  20,   1,  25)
       Max divergence:  0.11E-12 at (  39,   1,  16)
       Min divergence: -0.91E-13 at (  68,   1,  12)
       Max VN number:   0.24E-01 at (  75,   1,  31)
       Mesh    2
       Max CFL number:  0.47E+00 at (  25,   1,  14)
       Max divergence:  0.39E-12 at (  26,   1,  14)
       Min divergence: -0.69E-12 at (  27,   1,  14)
       Max VN number:   0.24E-01 at (  19,   1,  21)
       Mesh    3
       Max CFL number:  0.37E+00 at (   8,   1,  34)
       Max divergence:  0.15E-12 at (  25,   1,   2)
       Min divergence: -0.16E-12 at (  22,   1,  39)
       Max VN number:   0.24E-01 at (   1,   1,   6)
       Mesh    4
       Max CFL number:  0.18E+00 at (   1,   1,  15)
       Max divergence:  0.12E-12 at (  28,   1,  30)
       Min divergence: -0.99E-13 at (  27,   1,  11)
       Max VN number:   0.24E-01 at (   7,   1,  31)
 
       Time Step    1700   November 13, 2020  11:47:14
       Step Size:    0.411E-03 s, Total Time:       1.15 s
       Pressure Iterations:      2
       Maximum Velocity Error:  0.40E-03 on Mesh   3 at (   0   1  18)
       Maximum Pressure Error:  0.27E-08 on Mesh   2 at (  27   1  15)
       ---------------------------------------------------------------
       Mesh    1
       Max CFL number:  0.32E+00 at (  20,   1,  25)
       Max divergence:  0.12E-12 at (  23,   1,  27)
       Min divergence: -0.12E-12 at (  20,   1,  25)
       Max VN number:   0.24E-01 at (  75,   1,  31)
       Mesh    2
       Max CFL number:  0.48E+00 at (  25,   1,  14)
       Max divergence:  0.45E-12 at (  26,   1,  14)
       Min divergence: -0.67E-12 at (  27,   1,  14)
       Max VN number:   0.24E-01 at (  19,   1,  21)
       Mesh    3
       Max CFL number:  0.40E+00 at (  20,   1,  33)
       Max divergence:  0.17E-12 at (  35,   1,   7)
       Min divergence: -0.17E-12 at (  40,   1,   9)
       Max VN number:   0.24E-01 at (   4,   1,   7)
       Mesh    4
       Max CFL number:  0.18E+00 at (   7,   1,  13)
       Max divergence:  0.11E-12 at (  49,   1,  32)
       Min divergence: -0.10E-12 at (  27,   1,  10)
       Max VN number:   0.24E-01 at (   7,   1,  31)
 
       Time Step    1800   November 13, 2020  11:47:48
       Step Size:    0.411E-03 s, Total Time:       1.20 s
       Pressure Iterations:      3
       Maximum Velocity Error:  0.43E-03 on Mesh   2 at (  76   1  17)
       Maximum Pressure Error:  0.27E-08 on Mesh   2 at (  27   1  15)
       ---------------------------------------------------------------
       Mesh    1
       Max CFL number:  0.32E+00 at (  20,   1,  25)
       Max divergence:  0.11E-12 at (  65,   1,   7)
       Min divergence: -0.12E-12 at (  68,   1,  12)
       Max VN number:   0.24E-01 at (  75,   1,  31)
       Mesh    2
       Max CFL number:  0.49E+00 at (  25,   1,  14)
       Max divergence:  0.51E-12 at (  26,   1,  14)
       Min divergence: -0.70E-12 at (  27,   1,  14)
       Max VN number:   0.24E-01 at (  19,   1,  21)
       Mesh    3
       Max CFL number:  0.46E+00 at (  13,   1,   8)
       Max divergence:  0.19E-12 at (  13,   1,  12)
       Min divergence: -0.22E-12 at (  42,   1,  34)
       Max VN number:   0.24E-01 at (  12,   1,   7)
       Mesh    4
       Max CFL number:  0.20E+00 at (   1,   1,  32)
       Max divergence:  0.11E-12 at (  50,   1,  36)
       Min divergence: -0.11E-12 at (  52,   1,   5)
       Max VN number:   0.24E-01 at (   7,   1,  31)
 
       Time Step    1900   November 13, 2020  11:48:23
       Step Size:    0.411E-03 s, Total Time:       1.24 s
       Pressure Iterations:      3
       Maximum Velocity Error:  0.44E-03 on Mesh   2 at (  76   1   4)
       Maximum Pressure Error:  0.27E-08 on Mesh   2 at (  27   1  15)
       ---------------------------------------------------------------
       Mesh    1
       Max CFL number:  0.33E+00 at (  20,   1,  25)
       Max divergence:  0.92E-13 at (  23,   1,  27)
       Min divergence: -0.87E-13 at (  23,   1,  15)
       Max VN number:   0.24E-01 at (  75,   1,  31)
       Mesh    2
       Max CFL number:  0.50E+00 at (  25,   1,  27)
       Max divergence:  0.56E-12 at (  26,   1,  14)
       Min divergence: -0.71E-12 at (  27,   1,  14)
       Max VN number:   0.24E-01 at (  19,   1,  21)
       Mesh    3
       Max CFL number:  0.49E+00 at (  25,   1,   6)
       Max divergence:  0.29E-12 at (  12,   1,  18)
       Min divergence: -0.22E-12 at (  19,   1,   2)
       Max VN number:   0.24E-01 at (  12,   1,  16)
       Mesh    4
       Max CFL number:  0.24E+00 at (   1,   1,   7)
       Max divergence:  0.16E-12 at (   6,   1,  35)
       Min divergence: -0.14E-12 at (   1,   1,   4)
       Max VN number:   0.24E-01 at (   7,   1,  31)
 
       Time Step    2000   November 13, 2020  11:48:57
       Step Size:    0.370E-03 s, Total Time:       1.27 s
       Pressure Iterations:      4
       Maximum Velocity Error:  0.45E-03 on Mesh   4 at (   0   1  40)
       Maximum Pressure Error:  0.32E-08 on Mesh   2 at (  27   1  15)
       ---------------------------------------------------------------
       Mesh    1
       Max CFL number:  0.30E+00 at (  20,   1,  25)
       Max divergence:  0.96E-13 at (  33,   1,  27)
       Min divergence: -0.11E-12 at (   6,   1,   3)
       Max VN number:   0.21E-01 at (  75,   1,  31)
       Mesh    2
       Max CFL number:  0.46E+00 at (  25,   1,  14)
       Max divergence:  0.42E-12 at (  27,   1,  28)
       Min divergence: -0.41E-12 at (  27,   1,  14)
       Max VN number:   0.21E-01 at (  19,   1,  21)
       Mesh    3
       Max CFL number:  0.49E+00 at (  40,   1,   1)
       Max divergence:  0.29E-12 at (  44,   1,   2)
       Min divergence: -0.33E-12 at (  42,   1,   8)
       Max VN number:   0.21E-01 at (   2,   1,   7)
       Mesh    4
       Max CFL number:  0.34E+00 at (   7,   1,   3)
       Max divergence:  0.17E-12 at (  10,   1,   4)
       Min divergence: -0.17E-12 at (   8,   1,   5)
       Max VN number:   0.21E-01 at (   7,   1,  31)
 
       Time Step    2100   November 13, 2020  11:49:33
       Step Size:    0.370E-03 s, Total Time:       1.31 s
       Pressure Iterations:      5
       Maximum Velocity Error:  0.47E-03 on Mesh   2 at (  76   1  18)
       Maximum Pressure Error:  0.34E-08 on Mesh   2 at (  27   1  15)
       ---------------------------------------------------------------
       Mesh    1
       Max CFL number:  0.30E+00 at (  20,   1,  25)
       Max divergence:  0.98E-13 at (  23,   1,  27)
       Min divergence: -0.83E-13 at (  72,   1,  21)
       Max VN number:   0.21E-01 at (  75,   1,  31)
       Mesh    2
       Max CFL number:  0.48E+00 at (  25,   1,  14)
       Max divergence:  0.43E-12 at (  26,   1,  27)
       Min divergence: -0.64E-12 at (  27,   1,  27)
       Max VN number:   0.21E-01 at (  19,   1,  21)
       Mesh    3
       Max CFL number:  0.47E+00 at (  26,   1,  36)
       Max divergence:  0.26E-12 at (  34,   1,  39)
       Min divergence: -0.26E-12 at (  62,   1,   3)
       Max VN number:   0.21E-01 at (   9,   1,   7)
       Mesh    4
       Max CFL number:  0.41E+00 at (   4,   1,  40)
       Max divergence:  0.22E-12 at (  10,   1,  39)
       Min divergence: -0.18E-12 at (  27,   1,   4)
       Max VN number:   0.21E-01 at (   3,   1,  38)
 
       Time Step    2200   November 13, 2020  11:50:08
       Step Size:    0.332E-03 s, Total Time:       1.35 s
       Pressure Iterations:      3
       Maximum Velocity Error:  0.49E-03 on Mesh   2 at (  76   1  40)
       Maximum Pressure Error:  0.37E-08 on Mesh   2 at (  27   1  27)
       ---------------------------------------------------------------
       Mesh    1
       Max CFL number:  0.28E+00 at (  20,   1,  25)
       Max divergence:  0.84E-13 at (  23,   1,  37)
       Min divergence: -0.96E-13 at (  64,   1,  15)
       Max VN number:   0.19E-01 at (  75,   1,  31)
       Mesh    2
       Max CFL number:  0.47E+00 at (  25,   1,  27)
       Max divergence:  0.59E-12 at (  26,   1,  27)
       Min divergence: -0.86E-12 at (  27,   1,  27)
       Max VN number:   0.19E-01 at (  19,   1,  21)
       Mesh    3
       Max CFL number:  0.43E+00 at (  13,   1,   7)
       Max divergence:  0.36E-12 at (  12,   1,   9)
       Min divergence: -0.24E-12 at (  25,   1,   1)
       Max VN number:   0.19E-01 at (  16,   1,  10)
       Mesh    4
       Max CFL number:  0.42E+00 at (   2,   1,   3)
       Max divergence:  0.33E-12 at (   1,   1,   3)
       Min divergence: -0.28E-12 at (   2,   1,   3)
       Max VN number:   0.19E-01 at (   1,   1,   6)
 
       Time Step    2300   November 13, 2020  11:50:42
       Step Size:    0.298E-03 s, Total Time:       1.38 s
       Pressure Iterations:      3
       Maximum Velocity Error:  0.48E-03 on Mesh   2 at (  76   1  35)
       Maximum Pressure Error:  0.47E-08 on Mesh   2 at (  27   1  15)
       ---------------------------------------------------------------
       Mesh    1
       Max CFL number:  0.25E+00 at (  20,   1,  25)
       Max divergence:  0.12E-12 at (  29,   1,  33)
       Min divergence: -0.11E-12 at (  64,   1,  15)
       Max VN number:   0.17E-01 at (  75,   1,  31)
       Mesh    2
       Max CFL number:  0.47E+00 at (  25,   1,  14)
       Max divergence:  0.81E-12 at (  26,   1,  14)
       Min divergence: -0.69E-12 at (  27,   1,  14)
       Max VN number:   0.17E-01 at (  19,   1,  21)
       Mesh    3
       Max CFL number:  0.37E+00 at (  67,   1,  36)
       Max divergence:  0.24E-12 at (  34,   1,   5)
       Min divergence: -0.26E-12 at (  33,   1,   5)
       Max VN number:   0.17E-01 at (  67,   1,   5)
       Mesh    4
       Max CFL number:  0.40E+00 at (  20,   1,   1)
       Max divergence:  0.25E-12 at (  38,   1,  39)
       Min divergence: -0.23E-12 at (  23,   1,   3)
       Max VN number:   0.17E-01 at (  10,   1,   5)
 
       Time Step    2400   November 13, 2020  11:51:15
       Step Size:    0.298E-03 s, Total Time:       1.41 s
       Pressure Iterations:      5
       Maximum Velocity Error:  0.44E-03 on Mesh   2 at (  76   1  18)
       Maximum Pressure Error:  0.39E-08 on Mesh   2 at (  27   1  15)
       ---------------------------------------------------------------
       Mesh    1
       Max CFL number:  0.25E+00 at (  20,   1,  25)
       Max divergence:  0.11E-12 at (  17,   1,  10)
       Min divergence: -0.11E-12 at (  60,   1,  19)
       Max VN number:   0.17E-01 at (  75,   1,  31)
       Mesh    2
       Max CFL number:  0.46E+00 at (  25,   1,  27)
       Max divergence:  0.42E-12 at (  26,   1,  27)
       Min divergence: -0.36E-12 at (  27,   1,  14)
       Max VN number:   0.17E-01 at (  19,   1,  21)
       Mesh    3
       Max CFL number:  0.39E+00 at (  54,   1,   8)
       Max divergence:  0.22E-12 at (  61,   1,  16)
       Min divergence: -0.22E-12 at (  62,   1,  12)
       Max VN number:   0.17E-01 at (  67,   1,   5)
       Mesh    4
       Max CFL number:  0.41E+00 at (  40,   1,   1)
       Max divergence:  0.32E-12 at (  44,   1,   4)
       Min divergence: -0.24E-12 at (  47,   1,   4)
       Max VN number:   0.17E-01 at (   3,   1,  37)
 
       Time Step    2500   November 13, 2020  11:51:48
       Step Size:    0.267E-03 s, Total Time:       1.44 s
       Pressure Iterations:      3
       Maximum Velocity Error:  0.49E-03 on Mesh   4 at (   0   1   1)
       Maximum Pressure Error:  0.51E-08 on Mesh   2 at (  27   1  27)
       ---------------------------------------------------------------
       Mesh    1
       Max CFL number:  0.23E+00 at (  20,   1,  25)
       Max divergence:  0.12E-12 at (  23,   1,  28)
       Min divergence: -0.12E-12 at (  49,   1,  39)
       Max VN number:   0.16E-01 at (  75,   1,  31)
       Mesh    2
       Max CFL number:  0.45E+00 at (  25,   1,  27)
       Max divergence:  0.51E-12 at (  26,   1,  27)
       Min divergence: -0.74E-12 at (  27,   1,  27)
       Max VN number:   0.16E-01 at (  19,   1,  21)
       Mesh    3
       Max CFL number:  0.33E+00 at (  67,   1,   8)
       Max divergence:  0.26E-12 at (  66,   1,  10)
       Min divergence: -0.24E-12 at (  67,   1,  11)
       Max VN number:   0.16E-01 at (  67,   1,   5)
       Mesh    4
       Max CFL number:  0.37E+00 at (  59,   1,   1)
       Max divergence:  0.25E-12 at (  18,   1,  37)
       Min divergence: -0.31E-12 at (  57,   1,   3)
       Max VN number:   0.16E-01 at (  10,   1,   5)
 
       Time Step    2600   November 13, 2020  11:52:20
       Step Size:    0.267E-03 s, Total Time:       1.46 s
       Pressure Iterations:      4
       Maximum Velocity Error:  0.46E-03 on Mesh   2 at (  76   1  26)
       Maximum Pressure Error:  0.34E-08 on Mesh   2 at (  27   1  15)
       ---------------------------------------------------------------
       Mesh    1
       Max CFL number:  0.23E+00 at (  20,   1,  25)
       Max divergence:  0.12E-12 at (   5,   1,   3)
       Min divergence: -0.11E-12 at (  52,   1,   7)
       Max VN number:   0.16E-01 at (  75,   1,  31)
       Mesh    2
       Max CFL number:  0.46E+00 at (  25,   1,  14)
       Max divergence:  0.70E-12 at (  26,   1,  14)
       Min divergence: -0.52E-12 at (  27,   1,  14)
       Max VN number:   0.16E-01 at (  19,   1,  21)
       Mesh    3
       Max CFL number:  0.34E+00 at (  27,   1,  11)
       Max divergence:  0.22E-12 at (  30,   1,  13)
       Min divergence: -0.23E-12 at (  73,   1,   4)
       Max VN number:   0.16E-01 at (  69,   1,   5)
       Mesh    4
       Max CFL number:  0.36E+00 at (  75,   1,   1)
       Max divergence:  0.22E-12 at (  28,   1,  36)
       Min divergence: -0.22E-12 at (   3,   1,   5)
       Max VN number:   0.16E-01 at (  10,   1,   5)
 
       Time Step    2700   November 13, 2020  11:52:53
       Step Size:    0.267E-03 s, Total Time:       1.49 s
       Pressure Iterations:      2
       Maximum Velocity Error:  0.41E-03 on Mesh   3 at (  76   1   6)
       Maximum Pressure Error:  0.69E-08 on Mesh   2 at (  27   1  15)
       ---------------------------------------------------------------
       Mesh    1
       Max CFL number:  0.23E+00 at (  20,   1,  25)
       Max divergence:  0.10E-12 at (  58,   1,  12)
       Min divergence: -0.12E-12 at (  68,   1,  12)
       Max VN number:   0.16E-01 at (  75,   1,  31)
       Mesh    2
       Max CFL number:  0.46E+00 at (  34,   1,  14)
       Max divergence:  0.34E-12 at (  67,   1,   7)
       Min divergence: -0.58E-12 at (  27,   1,  14)
       Max VN number:   0.16E-01 at (  19,   1,  21)
       Mesh    3
       Max CFL number:  0.34E+00 at (  16,   1,  32)
       Max divergence:  0.22E-12 at (  62,   1,  28)
       Min divergence: -0.22E-12 at (  52,   1,  27)
       Max VN number:   0.16E-01 at (  69,   1,   5)
       Mesh    4
       Max CFL number:  0.34E+00 at (  47,   1,  38)
       Max divergence:  0.28E-12 at (  68,   1,  35)
       Min divergence: -0.28E-12 at (  67,   1,  35)
       Max VN number:   0.16E-01 at (  18,   1,   5)
 
       Time Step    2800   November 13, 2020  11:53:24
       Step Size:    0.267E-03 s, Total Time:       1.52 s
       Pressure Iterations:      3
       Maximum Velocity Error:  0.47E-03 on Mesh   2 at (  76   1  13)
       Maximum Pressure Error:  0.41E-08 on Mesh   2 at (  27   1  15)
       ---------------------------------------------------------------
       Mesh    1
       Max CFL number:  0.23E+00 at (  20,   1,  25)
       Max divergence:  0.10E-12 at (  75,   1,  10)
       Min divergence: -0.13E-12 at (  22,   1,  23)
       Max VN number:   0.16E-01 at (  75,   1,  31)
       Mesh    2
       Max CFL number:  0.48E+00 at (  25,   1,  27)
       Max divergence:  0.54E-12 at (  26,   1,  27)
       Min divergence: -0.40E-12 at (  27,   1,  27)
       Max VN number:   0.16E-01 at (  19,   1,  21)
       Mesh    3
       Max CFL number:  0.39E+00 at (   3,   1,  10)
       Max divergence:  0.22E-12 at (   8,   1,  10)
       Min divergence: -0.22E-12 at (   2,   1,   8)
       Max VN number:   0.16E-01 at (  69,   1,   5)
       Mesh    4
       Max CFL number:  0.35E+00 at (  64,   1,  39)
       Max divergence:  0.27E-12 at (  69,   1,  37)
       Min divergence: -0.27E-12 at (  59,   1,  39)
       Max VN number:   0.16E-01 at (  20,   1,   5)
 
       Time Step    2900   November 13, 2020  11:53:56
       Step Size:    0.240E-03 s, Total Time:       1.54 s
       Pressure Iterations:      2
       Maximum Velocity Error:  0.47E-03 on Mesh   4 at (   0   1  25)
       Maximum Pressure Error:  0.52E-08 on Mesh   2 at (  27   1  26)
       ---------------------------------------------------------------
       Mesh    1
       Max CFL number:  0.21E+00 at (  20,   1,  25)
       Max divergence:  0.13E-12 at (  23,   1,  28)
       Min divergence: -0.97E-13 at (  22,   1,  23)
       Max VN number:   0.14E-01 at (  75,   1,  31)
       Mesh    2
       Max CFL number:  0.41E+00 at (  25,   1,  27)
       Max divergence:  0.61E-12 at (  26,   1,  27)
       Min divergence: -0.66E-12 at (  27,   1,  27)
       Max VN number:   0.14E-01 at (  19,   1,  21)
       Mesh    3
       Max CFL number:  0.32E+00 at (   6,   1,  10)
       Max divergence:  0.24E-12 at (   8,   1,   7)
       Min divergence: -0.29E-12 at (  12,   1,  15)
       Max VN number:   0.14E-01 at (  69,   1,   5)
       Mesh    4
       Max CFL number:  0.32E+00 at (  45,   1,   5)
       Max divergence:  0.28E-12 at (  48,   1,   9)
       Min divergence: -0.22E-12 at (  15,   1,  29)
       Max VN number:   0.14E-01 at (  20,   1,   5)
 
       Time Step    3000   November 13, 2020  11:54:29
       Step Size:    0.265E-03 s, Total Time:       1.57 s
       Pressure Iterations:      5
       Maximum Velocity Error:  0.48E-03 on Mesh   2 at (  76   1  27)
       Maximum Pressure Error:  0.43E-08 on Mesh   2 at (  73   1  27)
       ---------------------------------------------------------------
       Mesh    1
       Max CFL number:  0.23E+00 at (  20,   1,  25)
       Max divergence:  0.12E-12 at (  23,   1,  27)
       Min divergence: -0.11E-12 at (  20,   1,   7)
       Max VN number:   0.15E-01 at (  75,   1,  31)
       Mesh    2
       Max CFL number:  0.46E+00 at (  25,   1,  14)
       Max divergence:  0.65E-12 at (  26,   1,  14)
       Min divergence: -0.70E-12 at (  73,   1,  27)
       Max VN number:   0.15E-01 at (  19,   1,  21)
       Mesh    3
       Max CFL number:  0.40E+00 at (   3,   1,  32)
       Max divergence:  0.44E-12 at (   5,   1,  32)
       Min divergence: -0.28E-12 at (   3,   1,  33)
       Max VN number:   0.15E-01 at (  69,   1,   5)
       Mesh    4
       Max CFL number:  0.35E+00 at (  58,   1,   2)
       Max divergence:  0.25E-12 at (  63,   1,  11)
       Min divergence: -0.22E-12 at (  63,   1,   8)
       Max VN number:   0.15E-01 at (  20,   1,   5)
 
       Time Step    3100   November 13, 2020  11:55:02
       Step Size:    0.265E-03 s, Total Time:       1.59 s
       Pressure Iterations:      5
       Maximum Velocity Error:  0.46E-03 on Mesh   3 at (  76   1  18)
       Maximum Pressure Error:  0.68E-08 on Mesh   2 at (  27   1  15)
       ---------------------------------------------------------------
       Mesh    1
       Max CFL number:  0.23E+00 at (  20,   1,  25)
       Max divergence:  0.12E-12 at (  34,   1,   7)
       Min divergence: -0.13E-12 at (  20,   1,  25)
       Max VN number:   0.15E-01 at (  75,   1,  31)
       Mesh    2
       Max CFL number:  0.47E+00 at (  25,   1,  14)
       Max divergence:  0.76E-12 at (  26,   1,  14)
       Min divergence: -0.81E-12 at (  27,   1,  14)
       Max VN number:   0.15E-01 at (  19,   1,  21)
       Mesh    3
       Max CFL number:  0.40E+00 at (   7,   1,  32)
       Max divergence:  0.33E-12 at (  13,   1,  29)
       Min divergence: -0.63E-12 at (  12,   1,  29)
       Max VN number:   0.15E-01 at (  69,   1,   5)
       Mesh    4
       Max CFL number:  0.34E+00 at (  72,   1,   1)
       Max divergence:  0.25E-12 at (  75,   1,   1)
       Min divergence: -0.24E-12 at (   3,   1,   7)
       Max VN number:   0.15E-01 at (  20,   1,   5)
 
       Time Step    3200   November 13, 2020  11:55:35
       Step Size:    0.265E-03 s, Total Time:       1.62 s
       Pressure Iterations:      2
       Maximum Velocity Error:  0.38E-03 on Mesh   2 at (  76   1  15)
       Maximum Pressure Error:  0.52E-08 on Mesh   2 at (  27   1  15)
       ---------------------------------------------------------------
       Mesh    1
       Max CFL number:  0.23E+00 at (  20,   1,  25)
       Max divergence:  0.12E-12 at (  23,   1,  22)
       Min divergence: -0.12E-12 at (  64,   1,  33)
       Max VN number:   0.15E-01 at (  75,   1,  31)
       Mesh    2
       Max CFL number:  0.46E+00 at (  25,   1,  27)
       Max divergence:  0.47E-12 at (  72,   1,  14)
       Min divergence: -0.46E-12 at (  74,   1,  15)
       Max VN number:   0.15E-01 at (  19,   1,  21)
       Mesh    3
       Max CFL number:  0.42E+00 at (   4,   1,  12)
       Max divergence:  0.33E-12 at (   3,   1,   8)
       Min divergence: -0.28E-12 at (  26,   1,  32)
       Max VN number:   0.15E-01 at (  69,   1,   5)
       Mesh    4
       Max CFL number:  0.33E+00 at (  46,   1,  35)
       Max divergence:  0.28E-12 at (  53,   1,  36)
       Min divergence: -0.22E-12 at (  23,   1,  13)
       Max VN number:   0.15E-01 at (  20,   1,   5)
 
       Time Step    3300   November 13, 2020  11:56:07
       Step Size:    0.238E-03 s, Total Time:       1.64 s
       Pressure Iterations:      3
       Maximum Velocity Error:  0.47E-03 on Mesh   3 at (   0   1  39)
       Maximum Pressure Error:  0.52E-08 on Mesh   2 at (  27   1  26)
       ---------------------------------------------------------------
       Mesh    1
       Max CFL number:  0.21E+00 at (  20,   1,  25)
       Max divergence:  0.12E-12 at (   5,   1,  30)
       Min divergence: -0.11E-12 at (   6,   1,  30)
       Max VN number:   0.14E-01 at (  75,   1,  31)
       Mesh    2
       Max CFL number:  0.41E+00 at (  25,   1,  27)
       Max divergence:  0.55E-12 at (  37,   1,  13)
       Min divergence: -0.63E-12 at (  27,   1,  27)
       Max VN number:   0.14E-01 at (  19,   1,  21)
       Mesh    3
       Max CFL number:  0.38E+00 at (  16,   1,  12)
       Max divergence:  0.44E-12 at (  16,   1,  12)
       Min divergence: -0.58E-12 at (  12,   1,  15)
       Max VN number:   0.14E-01 at (  69,   1,   5)
       Mesh    4
       Max CFL number:  0.30E+00 at (  61,   1,  36)
       Max divergence:  0.24E-12 at (  67,   1,  37)
       Min divergence: -0.23E-12 at (  39,   1,  11)
       Max VN number:   0.14E-01 at (  21,   1,   5)
 
       Time Step    3400   November 13, 2020  11:56:40
       Step Size:    0.262E-03 s, Total Time:       1.67 s
       Pressure Iterations:      7
       Maximum Velocity Error:  0.50E-03 on Mesh   2 at (  76   1  27)
       Maximum Pressure Error:  0.47E-08 on Mesh   2 at (  73   1  29)
       ---------------------------------------------------------------
       Mesh    1
       Max CFL number:  0.23E+00 at (  20,   1,  25)
       Max divergence:  0.11E-12 at (  23,   1,  27)
       Min divergence: -0.12E-12 at (  24,   1,  20)
       Max VN number:   0.15E-01 at (  75,   1,  31)
       Mesh    2
       Max CFL number:  0.44E+00 at (  25,   1,  14)
       Max divergence:  0.66E-12 at (  26,   1,  14)
       Min divergence: -0.61E-12 at (  73,   1,  27)
       Max VN number:   0.15E-01 at (  19,   1,  21)
       Mesh    3
       Max CFL number:  0.41E+00 at (   2,   1,  32)
       Max divergence:  0.30E-12 at (  42,   1,  30)
       Min divergence: -0.46E-12 at (  43,   1,  30)
       Max VN number:   0.15E-01 at (  69,   1,   5)
       Mesh    4
       Max CFL number:  0.32E+00 at (  75,   1,  37)
       Max divergence:  0.23E-12 at (  49,   1,  14)
       Min divergence: -0.29E-12 at (  48,   1,  11)
       Max VN number:   0.15E-01 at (  21,   1,   5)
 
       Time Step    3500   November 13, 2020  11:57:14
       Step Size:    0.262E-03 s, Total Time:       1.69 s
       Pressure Iterations:      4
       Maximum Velocity Error:  0.48E-03 on Mesh   3 at (  76   1  15)
       Maximum Pressure Error:  0.84E-08 on Mesh   2 at (  27   1  15)
       ---------------------------------------------------------------
       Mesh    1
       Max CFL number:  0.23E+00 at (  20,   1,  25)
       Max divergence:  0.11E-12 at (  23,   1,  22)
       Min divergence: -0.12E-12 at (  32,   1,  31)
       Max VN number:   0.15E-01 at (  75,   1,  31)
       Mesh    2
       Max CFL number:  0.48E+00 at (  25,   1,  14)
       Max divergence:  0.54E-12 at (  26,   1,  14)
       Min divergence: -0.63E-12 at (  27,   1,  14)
       Max VN number:   0.15E-01 at (  19,   1,  21)
       Mesh    3
       Max CFL number:  0.41E+00 at (   8,   1,  32)
       Max divergence:  0.39E-12 at (  62,   1,  29)
       Min divergence: -0.70E-12 at (  12,   1,  29)
       Max VN number:   0.15E-01 at (  71,   1,  37)
       Mesh    4
       Max CFL number:  0.34E+00 at (   9,   1,   8)
       Max divergence:  0.34E-12 at (   5,   1,   6)
       Min divergence: -0.22E-12 at (  48,   1,   8)
       Max VN number:   0.15E-01 at (  21,   1,   5)
 
       Time Step    3600   November 13, 2020  11:57:46
       Step Size:    0.262E-03 s, Total Time:       1.72 s
       Pressure Iterations:      5
       Maximum Velocity Error:  0.43E-03 on Mesh   3 at (  76   1  27)
       Maximum Pressure Error:  0.56E-08 on Mesh   2 at (  27   1  15)
       ---------------------------------------------------------------
       Mesh    1
       Max CFL number:  0.23E+00 at (  20,   1,  25)
       Max divergence:  0.13E-12 at (  30,   1,  31)
       Min divergence: -0.13E-12 at (  30,   1,  33)
       Max VN number:   0.15E-01 at (  75,   1,  31)
       Mesh    2
       Max CFL number:  0.44E+00 at (  25,   1,  27)
       Max divergence:  0.52E-12 at (  26,   1,  27)
       Min divergence: -0.44E-12 at (  37,   1,  13)
       Max VN number:   0.15E-01 at (  19,   1,  21)
       Mesh    3
       Max CFL number:  0.43E+00 at (   5,   1,  12)
       Max divergence:  0.45E-12 at (  42,   1,  14)
       Min divergence: -0.51E-12 at (  43,   1,  14)
       Max VN number:   0.15E-01 at (  72,   1,  37)
       Mesh    4
       Max CFL number:  0.37E+00 at (   1,   1,  33)
       Max divergence:  0.26E-12 at (  25,   1,  14)
       Min divergence: -0.22E-12 at (  24,   1,  13)
       Max VN number:   0.15E-01 at (  21,   1,   5)
 
       Time Step    3700   November 13, 2020  11:58:19
       Step Size:    0.235E-03 s, Total Time:       1.75 s
       Pressure Iterations:      3
       Maximum Velocity Error:  0.46E-03 on Mesh   3 at (  76   1  40)
       Maximum Pressure Error:  0.55E-08 on Mesh   2 at (  27   1  26)
       ---------------------------------------------------------------
       Mesh    1
       Max CFL number:  0.21E+00 at (  20,   1,  25)
       Max divergence:  0.13E-12 at (  32,   1,  32)
       Min divergence: -0.11E-12 at (  28,   1,  20)
       Max VN number:   0.14E-01 at (  75,   1,  31)
       Mesh    2
       Max CFL number:  0.41E+00 at (  25,   1,  27)
       Max divergence:  0.42E-12 at (  26,   1,  27)
       Min divergence: -0.56E-12 at (  27,   1,  27)
       Max VN number:   0.14E-01 at (  19,   1,  21)
       Mesh    3
       Max CFL number:  0.39E+00 at (  16,   1,  12)
       Max divergence:  0.36E-12 at (  62,   1,  15)
       Min divergence: -0.61E-12 at (  12,   1,  17)
       Max VN number:   0.14E-01 at (   1,   1,   5)
       Mesh    4
       Max CFL number:  0.33E+00 at (   4,   1,  33)
       Max divergence:  0.24E-12 at (  11,   1,  36)
       Min divergence: -0.25E-12 at (   6,   1,  33)
       Max VN number:   0.14E-01 at (  22,   1,   5)
 
       Time Step    3800   November 13, 2020  11:58:51
       Step Size:    0.259E-03 s, Total Time:       1.77 s
       Pressure Iterations:      7
       Maximum Velocity Error:  0.43E-03 on Mesh   2 at (  76   1  27)
       Maximum Pressure Error:  0.60E-08 on Mesh   2 at (  73   1  29)
       ---------------------------------------------------------------
       Mesh    1
       Max CFL number:  0.23E+00 at (  20,   1,  25)
       Max divergence:  0.20E-12 at (  23,   1,  27)
       Min divergence: -0.11E-12 at (  35,   1,  34)
       Max VN number:   0.15E-01 at (  75,   1,  31)
       Mesh    2
       Max CFL number:  0.43E+00 at (  48,   1,  13)
       Max divergence:  0.73E-12 at (  26,   1,  14)
       Min divergence: -0.76E-12 at (  73,   1,  28)
       Max VN number:   0.15E-01 at (  19,   1,  21)
       Mesh    3
       Max CFL number:  0.41E+00 at (  19,   1,  12)
       Max divergence:  0.40E-12 at (  25,   1,   7)
       Min divergence: -0.45E-12 at (  43,   1,  30)
       Max VN number:   0.15E-01 at (   1,   1,   5)
       Mesh    4
       Max CFL number:  0.36E+00 at (   1,   1,  11)
       Max divergence:  0.24E-12 at (  25,   1,  29)
       Min divergence: -0.33E-12 at (  28,   1,  30)
       Max VN number:   0.15E-01 at (  22,   1,   5)
 
       Time Step    3900   November 13, 2020  11:59:25
       Step Size:    0.259E-03 s, Total Time:       1.80 s
       Pressure Iterations:      4
       Maximum Velocity Error:  0.42E-03 on Mesh   4 at (   0   1  17)
       Maximum Pressure Error:  0.66E-08 on Mesh   2 at (  27   1  15)
       ---------------------------------------------------------------
       Mesh    1
       Max CFL number:  0.23E+00 at (  20,   1,  25)
       Max divergence:  0.12E-12 at (  34,   1,  18)
       Min divergence: -0.11E-12 at (  31,   1,  36)
       Max VN number:   0.15E-01 at (  75,   1,  31)
       Mesh    2
       Max CFL number:  0.48E+00 at (  25,   1,  14)
       Max divergence:  0.77E-12 at (  26,   1,  14)
       Min divergence: -0.70E-12 at (  27,   1,  14)
       Max VN number:   0.15E-01 at (  19,   1,  21)
       Mesh    3
       Max CFL number:  0.41E+00 at (  31,   1,  12)
       Max divergence:  0.33E-12 at (  13,   1,  29)
       Min divergence: -0.46E-12 at (  12,   1,  29)
       Max VN number:   0.15E-01 at (   1,   1,   5)
       Mesh    4
       Max CFL number:  0.38E+00 at (   3,   1,  10)
       Max divergence:  0.28E-12 at (  48,   1,  10)
       Min divergence: -0.36E-12 at (  50,   1,  11)
       Max VN number:   0.15E-01 at (  22,   1,   5)
 
       Time Step    4000   November 13, 2020  11:59:58
       Step Size:    0.259E-03 s, Total Time:       1.82 s
       Pressure Iterations:      5
       Maximum Velocity Error:  0.49E-03 on Mesh   3 at (  76   1  28)
       Maximum Pressure Error:  0.59E-08 on Mesh   2 at (  27   1  15)
       ---------------------------------------------------------------
       Mesh    1
       Max CFL number:  0.24E+00 at (  20,   1,  25)
       Max divergence:  0.12E-12 at (  31,   1,  39)
       Min divergence: -0.14E-12 at (  37,   1,  33)
       Max VN number:   0.15E-01 at (  75,   1,  31)
       Mesh    2
       Max CFL number:  0.44E+00 at (  25,   1,  27)
       Max divergence:  0.45E-12 at (  38,   1,  19)
       Min divergence: -0.48E-12 at (  37,   1,  13)
       Max VN number:   0.15E-01 at (  19,   1,  21)
       Mesh    3
       Max CFL number:  0.43E+00 at (   4,   1,  12)
       Max divergence:  0.33E-12 at (  50,   1,   8)
       Min divergence: -0.50E-12 at (  43,   1,  17)
       Max VN number:   0.15E-01 at (   1,   1,   5)
       Mesh    4
       Max CFL number:  0.38E+00 at (  15,   1,  10)
       Max divergence:  0.41E-12 at (  50,   1,  27)
       Min divergence: -0.39E-12 at (  48,   1,  28)
       Max VN number:   0.15E-01 at (  22,   1,   5)
 
       Time Step    4100   November 13, 2020  12:00:31
       Step Size:    0.233E-03 s, Total Time:       1.85 s
       Pressure Iterations:      2
       Maximum Velocity Error:  0.46E-03 on Mesh   3 at (  76   1  40)
       Maximum Pressure Error:  0.52E-08 on Mesh   2 at (  27   1  26)
       ---------------------------------------------------------------
       Mesh    1
       Max CFL number:  0.21E+00 at (  20,   1,  25)
       Max divergence:  0.14E-12 at (  23,   1,  27)
       Min divergence: -0.12E-12 at (  45,   1,  34)
       Max VN number:   0.14E-01 at (  75,   1,  31)
       Mesh    2
       Max CFL number:  0.42E+00 at (  25,   1,  27)
       Max divergence:  0.50E-12 at (  45,   1,  12)
       Min divergence: -0.48E-12 at (  27,   1,  27)
       Max VN number:   0.14E-01 at (  19,   1,  21)
       Mesh    3
       Max CFL number:  0.39E+00 at (  16,   1,  12)
       Max divergence:  0.44E-12 at (  38,   1,  36)
       Min divergence: -0.64E-12 at (  12,   1,  17)
       Max VN number:   0.14E-01 at (   1,   1,   5)
       Mesh    4
       Max CFL number:  0.34E+00 at (  55,   1,  34)
       Max divergence:  0.33E-12 at (  55,   1,  31)
       Min divergence: -0.47E-12 at (  26,   1,  11)
       Max VN number:   0.14E-01 at (  23,   1,   5)
 
       Time Step    4200   November 13, 2020  12:01:03
       Step Size:    0.256E-03 s, Total Time:       1.87 s
       Pressure Iterations:      8
       Maximum Velocity Error:  0.50E-03 on Mesh   2 at (  76   1  27)
       Maximum Pressure Error:  0.61E-08 on Mesh   2 at (  73   1  27)
       ---------------------------------------------------------------
       Mesh    1
       Max CFL number:  0.23E+00 at (  20,   1,  25)
       Max divergence:  0.16E-12 at (  38,   1,  21)
       Min divergence: -0.17E-12 at (  34,   1,  32)
       Max VN number:   0.15E-01 at (  75,   1,  31)
       Mesh    2
       Max CFL number:  0.43E+00 at (  48,   1,  13)
       Max divergence:  0.74E-12 at (  26,   1,  14)
       Min divergence: -0.83E-12 at (  73,   1,  28)
       Max VN number:   0.15E-01 at (  19,   1,  21)
       Mesh    3
       Max CFL number:  0.42E+00 at (  27,   1,  12)
       Max divergence:  0.34E-12 at (  72,   1,   7)
       Min divergence: -0.39E-12 at (  49,   1,  36)
       Max VN number:   0.15E-01 at (   1,   1,   5)
       Mesh    4
       Max CFL number:  0.38E+00 at (   1,   1,  12)
       Max divergence:  0.33E-12 at (  13,   1,  31)
       Min divergence: -0.31E-12 at (  48,   1,  15)
       Max VN number:   0.15E-01 at (  23,   1,   5)
 
       Time Step    4300   November 13, 2020  12:01:36
       Step Size:    0.256E-03 s, Total Time:       1.90 s
       Pressure Iterations:      3
       Maximum Velocity Error:  0.44E-03 on Mesh   4 at (   0   1  17)
       Maximum Pressure Error:  0.72E-08 on Mesh   2 at (  27   1  15)
       ---------------------------------------------------------------
       Mesh    1
       Max CFL number:  0.23E+00 at (  20,   1,  25)
       Max divergence:  0.15E-12 at (  75,   1,  10)
       Min divergence: -0.13E-12 at (  69,   1,   5)
       Max VN number:   0.15E-01 at (  75,   1,  31)
       Mesh    2
       Max CFL number:  0.49E+00 at (  25,   1,  14)
       Max divergence:  0.67E-12 at (  42,   1,  30)
       Min divergence: -0.66E-12 at (  27,   1,  14)
       Max VN number:   0.15E-01 at (  19,   1,  21)
       Mesh    3
       Max CFL number:  0.42E+00 at (  31,   1,  12)
       Max divergence:  0.44E-12 at (  13,   1,  29)
       Min divergence: -0.33E-12 at (  12,   1,  30)
       Max VN number:   0.15E-01 at (   1,   1,   5)
       Mesh    4
       Max CFL number:  0.39E+00 at (   3,   1,  11)
       Max divergence:  0.37E-12 at (  49,   1,  10)
       Min divergence: -0.32E-12 at (  50,   1,  15)
       Max VN number:   0.15E-01 at (  23,   1,   5)
 
       Time Step    4400   November 13, 2020  12:02:09
       Step Size:    0.256E-03 s, Total Time:       1.92 s
       Pressure Iterations:      5
       Maximum Velocity Error:  0.47E-03 on Mesh   3 at (  76   1  27)
       Maximum Pressure Error:  0.65E-08 on Mesh   2 at (  27   1  15)
       ---------------------------------------------------------------
       Mesh    1
       Max CFL number:  0.24E+00 at (  20,   1,  25)
       Max divergence:  0.12E-12 at (  47,   1,  31)
       Min divergence: -0.12E-12 at (  37,   1,  15)
       Max VN number:   0.15E-01 at (  75,   1,  31)
       Mesh    2
       Max CFL number:  0.44E+00 at (  25,   1,  27)
       Max divergence:  0.58E-12 at (  37,   1,  12)
       Min divergence: -0.60E-12 at (  37,   1,  14)
       Max VN number:   0.15E-01 at (  19,   1,  21)
       Mesh    3
       Max CFL number:  0.43E+00 at (   4,   1,  12)
       Max divergence:  0.30E-12 at (  42,   1,  16)
       Min divergence: -0.50E-12 at (  43,   1,  17)
       Max VN number:   0.15E-01 at (   1,   1,   5)
       Mesh    4
       Max CFL number:  0.38E+00 at (  24,   1,  11)
       Max divergence:  0.38E-12 at (  50,   1,  30)
       Min divergence: -0.37E-12 at (  49,   1,  29)
       Max VN number:   0.15E-01 at (  24,   1,   5)
 
       Time Step    4500   November 13, 2020  12:02:42
       Step Size:    0.230E-03 s, Total Time:       1.95 s
       Pressure Iterations:      2
       Maximum Velocity Error:  0.47E-03 on Mesh   3 at (  76   1  38)
       Maximum Pressure Error:  0.57E-08 on Mesh   2 at (  27   1  26)
       ---------------------------------------------------------------
       Mesh    1
       Max CFL number:  0.21E+00 at (  20,   1,  25)
       Max divergence:  0.13E-12 at (  35,   1,  28)
       Min divergence: -0.14E-12 at (  68,   1,  12)
       Max VN number:   0.13E-01 at (  75,   1,  31)
       Mesh    2
       Max CFL number:  0.42E+00 at (  25,   1,  27)
       Max divergence:  0.54E-12 at (  26,   1,  27)
       Min divergence: -0.54E-12 at (  27,   1,  27)
       Max VN number:   0.13E-01 at (  19,   1,  21)
       Mesh    3
       Max CFL number:  0.39E+00 at (  15,   1,  12)
       Max divergence:  0.33E-12 at (  62,   1,  16)
       Min divergence: -0.54E-12 at (  12,   1,  17)
       Max VN number:   0.13E-01 at (   1,   1,   5)
       Mesh    4
       Max CFL number:  0.35E+00 at (  57,   1,  34)
       Max divergence:  0.43E-12 at (  24,   1,  15)
       Min divergence: -0.48E-12 at (  26,   1,  14)
       Max VN number:   0.13E-01 at (  25,   1,   5)
 
       Time Step    4600   November 13, 2020  12:03:13
       Step Size:    0.253E-03 s, Total Time:       1.97 s
       Pressure Iterations:      8
       Maximum Velocity Error:  0.47E-03 on Mesh   2 at (  76   1  27)
       Maximum Pressure Error:  0.61E-08 on Mesh   2 at (  27   1  26)
       ---------------------------------------------------------------
       Mesh    1
       Max CFL number:  0.23E+00 at (  20,   1,  25)
       Max divergence:  0.16E-12 at (  25,   1,  14)
       Min divergence: -0.15E-12 at (  24,   1,  14)
       Max VN number:   0.15E-01 at (  75,   1,  31)
       Mesh    2
       Max CFL number:  0.43E+00 at (  47,   1,  13)
       Max divergence:  0.58E-12 at (  26,   1,  14)
       Min divergence: -0.66E-12 at (  73,   1,  27)
       Max VN number:   0.15E-01 at (  19,   1,  21)
       Mesh    3
       Max CFL number:  0.42E+00 at (  27,   1,  12)
       Max divergence:  0.34E-12 at (  42,   1,  29)
       Min divergence: -0.34E-12 at (  43,   1,  30)
       Max VN number:   0.15E-01 at (   1,   1,   5)
       Mesh    4
       Max CFL number:  0.38E+00 at (  39,   1,   9)
       Max divergence:  0.33E-12 at (  50,   1,  16)
       Min divergence: -0.44E-12 at (  48,   1,  14)
       Max VN number:   0.15E-01 at (  25,   1,   5)
 
       Time Step    4700   November 13, 2020  12:03:47
       Step Size:    0.253E-03 s, Total Time:       1.99 s
       Pressure Iterations:      4
       Maximum Velocity Error:  0.42E-03 on Mesh   4 at (   0   1  18)
       Maximum Pressure Error:  0.77E-08 on Mesh   2 at (  27   1  15)
       ---------------------------------------------------------------
       Mesh    1
       Max CFL number:  0.23E+00 at (  20,   1,  25)
       Max divergence:  0.16E-12 at (  23,   1,  27)
       Min divergence: -0.13E-12 at (  44,   1,  32)
       Max VN number:   0.15E-01 at (  75,   1,  31)
       Mesh    2
       Max CFL number:  0.49E+00 at (  25,   1,  14)
       Max divergence:  0.88E-12 at (  26,   1,  14)
       Min divergence: -0.72E-12 at (  27,   1,  14)
       Max VN number:   0.15E-01 at (  19,   1,  21)
       Mesh    3
       Max CFL number:  0.42E+00 at (  31,   1,  12)
       Max divergence:  0.44E-12 at (  13,   1,  29)
       Min divergence: -0.39E-12 at (  11,   1,  29)
       Max VN number:   0.15E-01 at (   1,   1,   5)
       Mesh    4
       Max CFL number:  0.39E+00 at (  53,   1,   8)
       Max divergence:  0.34E-12 at (   9,   1,   7)
       Min divergence: -0.33E-12 at (  54,   1,  11)
       Max VN number:   0.15E-01 at (  25,   1,   5)
 
       Time Step    4721   November 13, 2020  12:03:54
       Step Size:    0.539E-04 s, Total Time:       2.00 s
       Pressure Iterations:      1
       Maximum Velocity Error:  0.44E-03 on Mesh   2 at (  76   1  37)
       Maximum Pressure Error:  0.93E-08 on Mesh   2 at (  27   1  15)
       ---------------------------------------------------------------
       Mesh    1
       Max CFL number:  0.50E-01 at (  20,   1,  25)
       Max divergence:  0.10E-12 at (  60,   1,  32)
       Min divergence: -0.12E-12 at (  57,   1,  35)
       Max VN number:   0.31E-02 at (  75,   1,  31)
       Mesh    2
       Max CFL number:  0.10E+00 at (  25,   1,  14)
       Max divergence:  0.43E-12 at (  26,   1,  14)
       Min divergence: -0.39E-12 at (  69,   1,   9)
       Max VN number:   0.31E-02 at (  19,   1,  21)
       Mesh    3
       Max CFL number:  0.89E-01 at (  41,   1,  12)
       Max divergence:  0.33E-12 at (  40,   1,   9)
       Min divergence: -0.31E-12 at (  12,   1,  30)
       Max VN number:   0.31E-02 at (   1,   1,   5)
       Mesh    4
       Max CFL number:  0.83E-01 at (  55,   1,   8)
       Max divergence:  0.31E-12 at (  12,   1,   8)
       Min divergence: -0.31E-12 at (  67,   1,   5)
       Max VN number:   0.31E-02 at (  25,   1,   5)
 


 Time Stepping Wall Clock Time (s):     1656.194
 Total Elapsed Wall Clock Time (s):     1657.711

STOP: FDS completed successfully (CHID: dancing_eddies_default)
