
 Fire Dynamics Simulator

 Current Date     : October 28, 2020  13:53:32
 Revision         : -dirty-master
 Revision Date    : Wed Oct 28 10:57:14 2020 +0100
 Compiler         : Intel ifort 18.0.1
 Compilation Date : Oct 28, 2020 12:21:14

 MPI Enabled;    Number of MPI Processes:       4
 OpenMP Enabled; Number of OpenMP Threads:      4

 MPI version: 3.1
 MPI library version: Intel(R) MPI Library 2018 Update 1 for Linux* OS


 Job TITLE        : Simple 2D Tunnel test of unstructured ScaRC solver
 Job ID string    : dancing_eddies_mgm_expol


 Grid Dimensions, Mesh     1

   Cells in the X Direction            75
   Cells in the Y Direction             1
   Cells in the Z Direction            40
   Number of Grid Cells              3000


 Physical Dimensions, Mesh     1

   Length (m)                       0.075
   Width  (m)                       0.002
   Height (m)                       0.040
   Initial Time Step (s)            0.004

 Grid Dimensions, Mesh     2

   Cells in the X Direction            75
   Cells in the Y Direction             1
   Cells in the Z Direction            40
   Number of Grid Cells              3000


 Physical Dimensions, Mesh     2

   Length (m)                       0.075
   Width  (m)                       0.002
   Height (m)                       0.040
   Initial Time Step (s)            0.004

 Grid Dimensions, Mesh     3

   Cells in the X Direction            75
   Cells in the Y Direction             1
   Cells in the Z Direction            40
   Number of Grid Cells              3000


 Physical Dimensions, Mesh     3

   Length (m)                       0.075
   Width  (m)                       0.002
   Height (m)                       0.040
   Initial Time Step (s)            0.004

 Grid Dimensions, Mesh     4

   Cells in the X Direction            75
   Cells in the Y Direction             1
   Cells in the Z Direction            40
   Number of Grid Cells              3000


 Physical Dimensions, Mesh     4

   Length (m)                       0.075
   Width  (m)                       0.002
   Height (m)                       0.040
   Initial Time Step (s)            0.004

Total Number of Grid Cells         12000


 Miscellaneous Parameters

   Simulation Start Time (s)          0.0
   Simulation End Time (s)            2.0
   Ambient Temperature (C):         20.00


 Mass Fraction Transformation Matrix to Convert Species Mixtures (Columns) to Primitive Species (Rows)

                         AIR     
   AIR                   1.000000


 Primitive Species Information

   AIR
   Gas Species
   Molecular Weight (g/mol)            28.01340
   Ambient Density (kg/m^3)            1.165
   Enthalpy of Formation (J/kg)        0.00E+00


 Tracked (Lumped) Species Information

   AIR
   Molecular Weight (g/mol)            28.01340
   Ambient Density (kg/m^3)            1.165
   Initial Mass Fraction               1.000
   Enthalpy of Formation (J/kg)      0.00E+00

   Sub Species                    Mass Fraction     Mole Fraction
   AIR                            1.000000E+00      1.000000E+00
 
     Viscosity (kg/m/s) Ambient,  293 K:  1.20E-05
                                  500 K:  1.20E-05
                                 1000 K:  1.20E-05
                                 1500 K:  1.20E-05
   Therm. Cond. (W/m/K) Ambient,  293 K:  1.76E-02
                                  500 K:  1.76E-02
                                 1000 K:  1.76E-02
                                 1500 K:  1.76E-02
        Enthalpy (J/kg) Ambient,  293 K:  3.05E+05
                                  500 K:  5.19E+05
                                 1000 K:  1.04E+06
                                 1500 K:  1.56E+06
    Spec. Heat (J/kg/K) Ambient,  293 K:  1.04E+03
                                  500 K:  1.04E+03
                                 1000 K:  1.04E+03
                                 1500 K:  1.04E+03
   Diff. Coeff. (m^2/s) Ambient,  293 K:  1.99E-05
                                  500 K:  4.93E-05
                                 1000 K:  1.57E-04
                                 1500 K:  3.07E-04


 Material Information


 Surface Conditions

   0 INERT

   1 WALL (DEFAULT)

   2 PLATE

   3 BLOW
     Normal Velocity (m/s)        -0.500
     AIR Mass Fraction         1.000

   4 OPEN
     Passive Vent to Atmosphere

   5 MIRROR
     Symmetry Plane

   6 INTERPOLATED

   7 PERIODIC

   8 HVAC

   9 MASSLESS TRACER

  10 DROPLET

  11 EVACUATION_OUTFLOW
     Normal Velocity (m/s)         0.000

  12 MASSLESS TARGET

  13 PERIODIC FLOW ONLY


 Cut-off Density and Temperature

    Minimum Temperature:   -10.0 C
    Maximum Temperature:  2726.8 C
    Minimum Density:  1.165E-01 kg/m3
    Maximum Density:  2.595E+00 kg/m3


 Device Coordinates

     1 Coords:      0.200000      0.000000      0.000000, Make: null, ID: pres, Quantity: PRESSURE
     2 Coords:      0.000010      0.000000      0.000000, Make: null, ID: error, Quantity: MAXIMUM VELOCITY ERROR
     3 Coords:      0.000010      0.000000      0.000000, Make: null, ID: iter, Quantity: PRESSURE ITERATIONS
     4 Coords:      0.000010      0.000000      0.000000, Make: null, ID: cpu, Quantity: CPU TIME
     5 Coords:      0.000010      0.000000      0.000000, Make: null, ID: SCARC_ITE, Quantity: SCARC ITERATIONS
     6 Coords:      0.000010      0.000000      0.000000, Make: null, ID: SCARC_RES, Quantity: SCARC RESIDUAL
     7 Coords:      0.000010      0.000000      0.000000, Make: null, ID: SCARC_CONV, Quantity: SCARC CONVERGENCE RATE


 Slice File Information, Mesh     1

   Sampling Interval (s)             0.002

   1 Nodes:   0  75   1   1   0  40, Quantity: VELOCITY
   2 Nodes:   0  75   1   1   0  40, Quantity: U-VELOCITY
   3 Nodes:   0  75   1   1   0  40, Quantity: W-VELOCITY
   4 Nodes:   0  75   1   1   0  40, Quantity: H
   5 Nodes:   0  75   1   1   0  40, Quantity: PRESSURE


 Radiation Model Information

   Number of control angles   60
   Time step increment         2
   Angle increment             4
   Phi band   N_theta Solid angle
     1:       60     0.209


 USCARC Information

   Discretization             STRUCTURED
   Global solver                     MGM
   Storage technique             COMPACT
 
 

 Run Time Diagnostics

       Time Step       1   October 28, 2020  13:53:32
       Step Size:    0.395E-02 s, Total Time:      0.004 s
       Pressure Iterations:      1
       Maximum Velocity Error:  0.22E-18 on Mesh   1 at (  76   1  15)
       Maximum Pressure Error:  0.57E+06 on Mesh   1 at (  21   1  25)
       ScaRC: iterations    64, residual  0.94E-08, convergence rate   0.66E+00
       ---------------------------------------------------------------
       Mesh    1
       Max CFL number:  0.12E-01 at (  22,   1,  26)
       Max divergence:  0.28E-02 at (  30,   1,  40)
       Min divergence: -0.32E-01 at (  75,   1,  20)
       Max div. error:  0.32E-01 at (  75,   1,  20)
       Max VN number:   0.23E+00 at (  75,   1,  40)
       Mesh    2
       Max CFL number:  0.29E-01 at (  28,   1,  26)
       Max divergence:  0.67E-01 at (  37,   1,  40)
       Min divergence: -0.56E-01 at (  17,   1,   1)
       Max div. error:  0.67E-01 at (  37,   1,  40)
       Max VN number:   0.23E+00 at (  75,   1,  40)
       Mesh    3
       Max CFL number:  0.78E-02 at (  11,   1,   3)
       Max divergence:  0.51E-02 at (   1,   1,  21)
       Min divergence: -0.90E-11 at (  11,   1,  37)
       Max div. error:  0.51E-02 at (   1,   1,  21)
       Max VN number:   0.23E+00 at (  75,   1,  40)
       Mesh    4
       Max CFL number:  0.78E-02 at (  47,   1,   3)
       Max divergence:  0.53E-06 at (   1,   1,  21)
       Min divergence: -0.33E-11 at (  48,   1,   1)
       Max div. error:  0.53E-06 at (   1,   1,  21)
       Max VN number:   0.23E+00 at (  75,   1,  40)
 
       Time Step       2   October 28, 2020  13:53:32
       Step Size:    0.395E-02 s, Total Time:      0.008 s
       Pressure Iterations:      1
       Maximum Velocity Error:  0.87E-18 on Mesh   1 at (  76   1  12)
       Maximum Pressure Error:  0.57E+06 on Mesh   1 at (  21   1  25)
       ScaRC: iterations    65, residual  0.39E-08, convergence rate   0.66E+00
       ---------------------------------------------------------------
       Mesh    1
       Max CFL number:  0.24E-01 at (  20,   1,  24)
       Max divergence:  0.19E-02 at (  29,   1,  40)
       Min divergence: -0.25E-01 at (  75,   1,  20)
       Max div. error:  0.27E-01 at (  75,   1,  20)
       Max VN number:   0.23E+00 at (  30,   1,  40)
       Mesh    2
       Max CFL number:  0.57E-01 at (  25,   1,  26)
       Max divergence:  0.49E-01 at (  37,   1,  40)
       Min divergence: -0.43E-01 at (  16,   1,   1)
       Max div. error:  0.70E-01 at (  37,   1,  40)
       Max VN number:   0.23E+00 at (  37,   1,  40)
       Mesh    3
       Max CFL number:  0.16E-01 at (   1,   1,   1)
       Max divergence:  0.41E-02 at (   1,   1,  21)
       Min divergence: -0.80E-11 at (  11,   1,  37)
       Max div. error:  0.44E-02 at (   1,   1,  21)
       Max VN number:   0.23E+00 at (   1,   1,  21)
       Mesh    4
       Max CFL number:  0.16E-01 at (   5,   1,   1)
       Max divergence:  0.29E-05 at (   1,   1,  20)
       Min divergence: -0.29E-11 at (  48,   1,  37)
       Max div. error:  0.30E-05 at (   1,   1,  20)
       Max VN number:   0.23E+00 at (   1,   1,  21)
 
       Time Step       3   October 28, 2020  13:53:32
       Step Size:    0.395E-02 s, Total Time:       0.01 s
       Pressure Iterations:      1
       Maximum Velocity Error:  0.87E-18 on Mesh   1 at (  76   1  23)
       Maximum Pressure Error:  0.57E+06 on Mesh   1 at (  21   1  25)
       ScaRC: iterations    65, residual  0.53E-08, convergence rate   0.66E+00
       ---------------------------------------------------------------
       Mesh    1
       Max CFL number:  0.35E-01 at (  20,   1,  24)
       Max divergence:  0.11E-02 at (  29,   1,  40)
       Min divergence: -0.14E-01 at (  75,   1,  20)
       Max div. error:  0.18E-01 at (  75,   1,  20)
       Max VN number:   0.23E+00 at (  29,   1,  40)
       Mesh    2
       Max CFL number:  0.84E-01 at (  25,   1,  26)
       Max divergence:  0.34E-01 at (  37,   1,  40)
       Min divergence: -0.32E-01 at (  16,   1,   1)
       Max div. error:  0.71E-01 at (  37,   1,  40)
       Max VN number:   0.23E+00 at (  37,   1,  40)
       Mesh    3
       Max CFL number:  0.23E-01 at (   1,   1,  40)
       Max divergence:  0.23E-02 at (   1,   1,  21)
       Min divergence: -0.70E-11 at (  11,   1,  22)
       Max div. error:  0.30E-02 at (   1,   1,  21)
       Max VN number:   0.23E+00 at (   1,   1,  21)
       Mesh    4
       Max CFL number:  0.23E-01 at (   2,   1,  40)
       Max divergence:  0.60E-05 at (   1,   1,  21)
       Min divergence: -0.26E-11 at (  48,   1,  37)
       Max div. error:  0.64E-05 at (   1,   1,  21)
       Max VN number:   0.23E+00 at (   1,   1,  20)
 
       Time Step       4   October 28, 2020  13:53:32
       Step Size:    0.395E-02 s, Total Time:       0.02 s
       Pressure Iterations:      1
       Maximum Velocity Error:  0.00E+00 on Mesh   1 at (  76   1  23)
       Maximum Pressure Error:  0.57E+06 on Mesh   1 at (  21   1  25)
       ScaRC: iterations    65, residual  0.81E-08, convergence rate   0.66E+00
       ---------------------------------------------------------------
       Mesh    1
       Max CFL number:  0.46E-01 at (  20,   1,  24)
       Max divergence:  0.45E-03 at (  28,   1,  40)
       Min divergence: -0.17E-01 at (  75,   1,   1)
       Max div. error:  0.25E-01 at (  75,   1,   1)
       Max VN number:   0.23E+00 at (  29,   1,  40)
       Mesh    2
       Max CFL number:  0.11E+00 at (  25,   1,  26)
       Max divergence:  0.21E-01 at (  37,   1,  40)
       Min divergence: -0.24E-01 at (  15,   1,   1)
       Max div. error:  0.72E-01 at (  37,   1,  40)
       Max VN number:   0.23E+00 at (  37,   1,  40)
       Mesh    3
       Max CFL number:  0.31E-01 at (   1,   1,  40)
       Max divergence:  0.29E-02 at (   1,   1,  40)
       Min divergence: -0.62E-11 at (  11,   1,  30)
       Max div. error:  0.44E-02 at (   1,   1,  40)
       Max VN number:   0.23E+00 at (   1,   1,  21)
       Mesh    4
       Max CFL number:  0.31E-01 at (   2,   1,  40)
       Max divergence:  0.84E-05 at (   1,   1,  21)
       Min divergence: -0.24E-11 at (  48,   1,  36)
       Max div. error:  0.94E-05 at (   1,   1,  21)
       Max VN number:   0.23E+00 at (   1,   1,  21)
 
       Time Step       5   October 28, 2020  13:53:32
       Step Size:    0.395E-02 s, Total Time:       0.02 s
       Pressure Iterations:      1
       Maximum Velocity Error:  0.00E+00 on Mesh   1 at (  76   1  23)
       Maximum Pressure Error:  0.57E+06 on Mesh   1 at (  21   1  25)
       ScaRC: iterations    68, residual  0.75E-08, convergence rate   0.67E+00
       ---------------------------------------------------------------
       Mesh    1
       Max CFL number:  0.57E-01 at (  20,   1,  24)
       Max divergence:  0.78E-02 at (  75,   1,  20)
       Min divergence: -0.20E-01 at (  75,   1,   1)
       Max div. error:  0.35E-01 at (  75,   1,   1)
       Max VN number:   0.23E+00 at (  29,   1,  40)
       Mesh    2
       Max CFL number:  0.14E+00 at (  25,   1,  26)
       Max divergence:  0.13E-01 at (  37,   1,  39)
       Min divergence: -0.20E-01 at (   1,   1,   1)
       Max div. error:  0.74E-01 at (  16,   1,   1)
       Max VN number:   0.23E+00 at (  37,   1,  40)
       Mesh    3
       Max CFL number:  0.39E-01 at (   1,   1,  40)
       Max divergence:  0.34E-02 at (   1,   1,  40)
       Min divergence: -0.13E-02 at (   1,   1,  20)
       Max div. error:  0.62E-02 at (   1,   1,  40)
       Max VN number:   0.23E+00 at (   1,   1,  21)
       Mesh    4
       Max CFL number:  0.39E-01 at (   1,   1,  40)
       Max divergence:  0.90E-05 at (   1,   1,  20)
       Min divergence: -0.23E-11 at (  48,   1,  19)
       Max div. error:  0.11E-04 at (   1,   1,  20)
       Max VN number:   0.23E+00 at (   1,   1,  21)
 
       Time Step       6   October 28, 2020  13:53:32
       Step Size:    0.395E-02 s, Total Time:       0.02 s
       Pressure Iterations:      1
       Maximum Velocity Error:  0.00E+00 on Mesh   1 at (  76   1  23)
       Maximum Pressure Error:  0.57E+06 on Mesh   1 at (  21   1  25)
       ScaRC: iterations    68, residual  0.88E-08, convergence rate   0.67E+00
       ---------------------------------------------------------------
       Mesh    1
       Max CFL number:  0.67E-01 at (  20,   1,  24)
       Max divergence:  0.15E-01 at (  75,   1,  20)
       Min divergence: -0.20E-01 at (  75,   1,   1)
       Max div. error:  0.44E-01 at (  75,   1,   1)
       Max VN number:   0.23E+00 at (  29,   1,  40)
       Mesh    2
       Max CFL number:  0.16E+00 at (  25,   1,  26)
       Max divergence:  0.16E-01 at (   1,   1,  20)
       Min divergence: -0.20E-01 at (   1,   1,   1)
       Max div. error:  0.78E-01 at (  16,   1,   1)
       Max VN number:   0.23E+00 at (  37,   1,  40)
       Mesh    3
       Max CFL number:  0.47E-01 at (   1,   1,  40)
       Max divergence:  0.33E-02 at (   1,   1,   1)
       Min divergence: -0.27E-02 at (   1,   1,  20)
       Max div. error:  0.76E-02 at (   1,   1,  40)
       Max VN number:   0.23E+00 at (   1,   1,  40)
       Mesh    4
       Max CFL number:  0.47E-01 at (   1,   1,  40)
       Max divergence:  0.83E-05 at (   1,   1,  40)
       Min divergence: -0.21E-11 at (  48,   1,  22)
       Max div. error:  0.13E-04 at (   1,   1,  40)
       Max VN number:   0.23E+00 at (   1,   1,  20)
 
       Time Step       7   October 28, 2020  13:53:33
       Step Size:    0.395E-02 s, Total Time:       0.03 s
       Pressure Iterations:      1
       Maximum Velocity Error:  0.00E+00 on Mesh   1 at (  76   1  23)
       Maximum Pressure Error:  0.57E+06 on Mesh   1 at (  21   1  25)
       ScaRC: iterations    68, residual  0.98E-08, convergence rate   0.67E+00
       ---------------------------------------------------------------
       Mesh    1
       Max CFL number:  0.77E-01 at (  20,   1,  24)
       Max divergence:  0.20E-01 at (  75,   1,  20)
       Min divergence: -0.17E-01 at (  75,   1,   1)
       Max div. error:  0.51E-01 at (  75,   1,   1)
       Max VN number:   0.23E+00 at (  29,   1,  40)
       Mesh    2
       Max CFL number:  0.18E+00 at (  25,   1,  26)
       Max divergence:  0.20E-01 at (   1,   1,  20)
       Min divergence: -0.17E-01 at (   1,   1,   1)
       Max div. error:  0.81E-01 at (  15,   1,   1)
       Max VN number:   0.23E+00 at (  37,   1,  40)
       Mesh    3
       Max CFL number:  0.55E-01 at (   1,   1,  40)
       Max divergence:  0.27E-02 at (   1,   1,   1)
       Min divergence: -0.34E-02 at (   1,   1,  20)
       Max div. error:  0.87E-02 at (   1,   1,  40)
       Max VN number:   0.23E+00 at (   1,   1,  40)
       Mesh    4
       Max CFL number:  0.55E-01 at (   1,   1,  40)
       Max divergence:  0.11E-04 at (   1,   1,   1)
       Min divergence: -0.20E-11 at (  48,   1,  30)
       Max div. error:  0.19E-04 at (   1,   1,  40)
       Max VN number:   0.23E+00 at (   1,   1,  20)
 
       Time Step       8   October 28, 2020  13:53:33
       Step Size:    0.395E-02 s, Total Time:       0.03 s
       Pressure Iterations:      1
       Maximum Velocity Error:  0.00E+00 on Mesh   1 at (  76   1  23)
       Maximum Pressure Error:  0.57E+06 on Mesh   1 at (  21   1  25)
       ScaRC: iterations    69, residual  0.76E-08, convergence rate   0.67E+00
       ---------------------------------------------------------------
       Mesh    1
       Max CFL number:  0.88E-01 at (  20,   1,  24)
       Max divergence:  0.20E-01 at (  75,   1,  20)
       Min divergence: -0.11E-01 at (  74,   1,  40)
       Max div. error:  0.55E-01 at (  75,   1,   1)
       Max VN number:   0.23E+00 at (  29,   1,  40)
       Mesh    2
       Max CFL number:  0.21E+00 at (  25,   1,  26)
       Max divergence:  0.21E-01 at (   1,   1,  20)
       Min divergence: -0.16E-01 at (  16,   1,   2)
       Max div. error:  0.83E-01 at (  15,   1,   1)
       Max VN number:   0.23E+00 at (  37,   1,  40)
       Mesh    3
       Max CFL number:  0.63E-01 at (   1,   1,  40)
       Max divergence:  0.16E-02 at (   2,   1,   1)
       Min divergence: -0.35E-02 at (   1,   1,  20)
       Max div. error:  0.92E-02 at (   1,   1,  40)
       Max VN number:   0.23E+00 at (   1,   1,  40)
       Mesh    4
       Max CFL number:  0.62E-01 at (   1,   1,  40)
       Max divergence:  0.13E-04 at (   1,   1,   1)
       Min divergence: -0.30E-05 at (   1,   1,  21)
       Max div. error:  0.26E-04 at (   1,   1,  40)
       Max VN number:   0.23E+00 at (   1,   1,  20)
 
       Time Step       9   October 28, 2020  13:53:33
       Step Size:    0.395E-02 s, Total Time:       0.04 s
       Pressure Iterations:      1
       Maximum Velocity Error:  0.00E+00 on Mesh   1 at (  76   1  23)
       Maximum Pressure Error:  0.57E+06 on Mesh   1 at (  21   1  25)
       ScaRC: iterations    69, residual  0.76E-08, convergence rate   0.67E+00
       ---------------------------------------------------------------
       Mesh    1
       Max CFL number:  0.98E-01 at (  20,   1,  24)
       Max divergence:  0.18E-01 at (  75,   1,  21)
       Min divergence: -0.92E-02 at (  74,   1,   2)
       Max div. error:  0.55E-01 at (  75,   1,   1)
       Max VN number:   0.23E+00 at (  75,   1,  20)
       Mesh    2
       Max CFL number:  0.23E+00 at (  25,   1,  26)
       Max divergence:  0.18E-01 at (   1,   1,  21)
       Min divergence: -0.16E-01 at (  15,   1,   2)
       Max div. error:  0.84E-01 at (  15,   1,   1)
       Max VN number:   0.23E+00 at (  37,   1,  40)
       Mesh    3
       Max CFL number:  0.70E-01 at (   1,   1,  40)
       Max divergence:  0.16E-02 at (   2,   1,  39)
       Min divergence: -0.30E-02 at (   1,   1,  21)
       Max div. error:  0.91E-02 at (   1,   1,  40)
       Max VN number:   0.23E+00 at (   1,   1,  40)
       Mesh    4
       Max CFL number:  0.70E-01 at (   1,   1,  40)
       Max divergence:  0.13E-04 at (   1,   1,   1)
       Min divergence: -0.97E-05 at (   1,   1,  20)
       Max div. error:  0.32E-04 at (   1,   1,  40)
       Max VN number:   0.23E+00 at (   1,   1,  40)
 
       Time Step      10   October 28, 2020  13:53:33
       Step Size:    0.395E-02 s, Total Time:       0.04 s
       Pressure Iterations:      1
       Maximum Velocity Error:  0.00E+00 on Mesh   1 at (  76   1  23)
       Maximum Pressure Error:  0.57E+06 on Mesh   1 at (  21   1  25)
       ScaRC: iterations    68, residual  0.99E-08, convergence rate   0.67E+00
       ---------------------------------------------------------------
       Mesh    1
       Max CFL number:  0.11E+00 at (  20,   1,  24)
       Max divergence:  0.12E-01 at (  75,   1,  21)
       Min divergence: -0.97E-02 at (  74,   1,   2)
       Max div. error:  0.51E-01 at (  75,   1,   1)
       Max VN number:   0.23E+00 at (  75,   1,  20)
       Mesh    2
       Max CFL number:  0.25E+00 at (  25,   1,  26)
       Max divergence:  0.15E-01 at (  37,   1,  39)
       Min divergence: -0.16E-01 at (  15,   1,   2)
       Max div. error:  0.84E-01 at (  15,   1,  40)
       Max VN number:   0.23E+00 at (  37,   1,  40)
       Mesh    3
       Max CFL number:  0.78E-01 at (   1,   1,  40)
       Max divergence:  0.16E-02 at (   2,   1,  39)
       Min divergence: -0.20E-02 at (   1,   1,  21)
       Max div. error:  0.85E-02 at (   1,   1,  40)
       Max VN number:   0.23E+00 at (   1,   1,  40)
       Mesh    4
       Max CFL number:  0.78E-01 at (   1,   1,  40)
       Max divergence:  0.11E-04 at (   1,   1,   1)
       Min divergence: -0.16E-04 at (   1,   1,  21)
       Max div. error:  0.37E-04 at (   1,   1,  40)
       Max VN number:   0.23E+00 at (   1,   1,  40)
 
       Time Step      20   October 28, 2020  13:53:34
       Step Size:    0.395E-02 s, Total Time:       0.08 s
       Pressure Iterations:      1
       Maximum Velocity Error:  0.00E+00 on Mesh   1 at (  76   1  23)
       Maximum Pressure Error:  0.57E+06 on Mesh   1 at (  21   1  25)
       ScaRC: iterations    68, residual  0.96E-08, convergence rate   0.67E+00
       ---------------------------------------------------------------
       Mesh    1
       Max CFL number:  0.22E+00 at (  20,   1,  23)
       Max divergence:  0.43E-02 at (  75,   1,   1)
       Min divergence: -0.43E-02 at (  75,   1,   2)
       Max div. error:  0.41E-01 at (  75,   1,   1)
       Max VN number:   0.23E+00 at (  29,   1,  40)
       Mesh    2
       Max CFL number:  0.49E+00 at (  25,   1,  27)
       Max divergence:  0.28E-01 at (  19,   1,  40)
       Min divergence: -0.29E-01 at (  39,   1,  40)
       Max div. error:  0.99E-01 at (  37,   1,  40)
       Max VN number:   0.23E+00 at (  37,   1,   1)
       Mesh    3
       Max CFL number:  0.16E+00 at (   1,   1,  40)
       Max divergence:  0.64E-03 at (   2,   1,   2)
       Min divergence: -0.15E-02 at (   1,   1,  40)
       Max div. error:  0.69E-02 at (   1,   1,  40)
       Max VN number:   0.23E+00 at (   1,   1,  40)
       Mesh    4
       Max CFL number:  0.16E+00 at (   1,   1,  17)
       Max divergence:  0.24E-04 at (   1,   1,  20)
       Min divergence: -0.18E-04 at (   1,   1,  40)
       Max div. error:  0.27E-04 at (   1,   1,  20)
       Max VN number:   0.23E+00 at (   1,   1,  40)
 
       Time Step      30   October 28, 2020  13:53:36
       Step Size:    0.263E-02 s, Total Time:       0.11 s
       Pressure Iterations:      1
       Maximum Velocity Error:  0.00E+00 on Mesh   1 at (  76   1  23)
       Maximum Pressure Error:  0.57E+06 on Mesh   1 at (  21   1  25)
       ScaRC: iterations    69, residual  0.71E-08, convergence rate   0.67E+00
       ---------------------------------------------------------------
       Mesh    1
       Max CFL number:  0.21E+00 at (  20,   1,  23)
       Max divergence:  0.23E-01 at (  75,   1,   1)
       Min divergence: -0.77E-02 at (  75,   1,  20)
       Max div. error:  0.31E-01 at (  75,   1,   1)
       Max VN number:   0.15E+00 at (  30,   1,  40)
       Mesh    2
       Max CFL number:  0.47E+00 at (  25,   1,  27)
       Max divergence:  0.44E-01 at (  19,   1,  40)
       Min divergence: -0.40E-01 at (  40,   1,  40)
       Max div. error:  0.81E-01 at (  36,   1,  40)
       Max VN number:   0.15E+00 at (  38,   1,   1)
       Mesh    3
       Max CFL number:  0.14E+00 at (   1,   1,  40)
       Max divergence:  0.13E-02 at (   1,   1,  20)
       Min divergence: -0.49E-02 at (   1,   1,  40)
       Max div. error:  0.46E-02 at (   1,   1,  40)
       Max VN number:   0.15E+00 at (   1,   1,  40)
       Mesh    4
       Max CFL number:  0.14E+00 at (   1,   1,  40)
       Max divergence:  0.38E-05 at (   1,   1,   2)
       Min divergence: -0.22E-04 at (   1,   1,  40)
       Max div. error:  0.13E-04 at (   1,   1,  40)
       Max VN number:   0.15E+00 at (   1,   1,  40)
 
       Time Step      40   October 28, 2020  13:53:37
       Step Size:    0.205E-02 s, Total Time:       0.13 s
       Pressure Iterations:      1
       Maximum Velocity Error:  0.00E+00 on Mesh   1 at (  76   1  22)
       Maximum Pressure Error:  0.57E+06 on Mesh   1 at (  21   1  25)
       ScaRC: iterations    70, residual  0.68E-08, convergence rate   0.67E+00
       ---------------------------------------------------------------
       Mesh    1
       Max CFL number:  0.20E+00 at (  20,   1,  23)
       Max divergence:  0.15E-01 at (  75,   1,   1)
       Min divergence: -0.38E-02 at (  75,   1,  39)
       Max div. error:  0.36E-01 at (  75,   1,   1)
       Max VN number:   0.12E+00 at (  30,   1,  40)
       Mesh    2
       Max CFL number:  0.46E+00 at (  25,   1,  27)
       Max divergence:  0.41E-01 at (  19,   1,  40)
       Min divergence: -0.40E-01 at (  40,   1,  40)
       Max div. error:  0.76E-01 at (  15,   1,  40)
       Max VN number:   0.12E+00 at (  38,   1,   1)
       Mesh    3
       Max CFL number:  0.14E+00 at (   1,   1,  40)
       Max divergence:  0.43E-03 at (   1,   1,  38)
       Min divergence: -0.39E-02 at (   1,   1,  40)
       Max div. error:  0.54E-02 at (   1,   1,   1)
       Max VN number:   0.12E+00 at (   1,   1,  40)
       Mesh    4
       Max CFL number:  0.14E+00 at (   1,   1,  40)
       Max divergence:  0.24E-05 at (   2,   1,   1)
       Min divergence: -0.13E-04 at (   1,   1,  20)
       Max div. error:  0.26E-04 at (   1,   1,  40)
       Max VN number:   0.12E+00 at (   1,   1,  40)
 
       Time Step      50   October 28, 2020  13:53:39
       Step Size:    0.183E-02 s, Total Time:       0.15 s
       Pressure Iterations:      1
       Maximum Velocity Error:  0.00E+00 on Mesh   1 at (  76   1  22)
       Maximum Pressure Error:  0.57E+06 on Mesh   1 at (  21   1  25)
       ScaRC: iterations    70, residual  0.79E-08, convergence rate   0.67E+00
       ---------------------------------------------------------------
       Mesh    1
       Max CFL number:  0.21E+00 at (  20,   1,  23)
       Max divergence:  0.12E-01 at (  75,   1,   1)
       Min divergence: -0.33E-02 at (  75,   1,  39)
       Max div. error:  0.37E-01 at (  75,   1,   1)
       Max VN number:   0.11E+00 at (  30,   1,  40)
       Mesh    2
       Max CFL number:  0.47E+00 at (  25,   1,  14)
       Max divergence:  0.38E-01 at (  20,   1,  40)
       Min divergence: -0.36E-01 at (  40,   1,  40)
       Max div. error:  0.79E-01 at (  36,   1,   1)
       Max VN number:   0.11E+00 at (  38,   1,   1)
       Mesh    3
       Max CFL number:  0.14E+00 at (   1,   1,  40)
       Max divergence:  0.34E-03 at (   1,   1,   3)
       Min divergence: -0.34E-02 at (   1,   1,  40)
       Max div. error:  0.55E-02 at (   1,   1,   1)
       Max VN number:   0.11E+00 at (   1,   1,  40)
       Mesh    4
       Max CFL number:  0.14E+00 at (   1,   1,  40)
       Max divergence:  0.61E-05 at (   1,   1,  21)
       Min divergence: -0.13E-04 at (   1,   1,  40)
       Max div. error:  0.91E-05 at (   1,   1,  40)
       Max VN number:   0.11E+00 at (   1,   1,  40)
 
       Time Step      60   October 28, 2020  13:53:41
       Step Size:    0.164E-02 s, Total Time:       0.17 s
       Pressure Iterations:      1
       Maximum Velocity Error:  0.00E+00 on Mesh   1 at (  76   1  22)
       Maximum Pressure Error:  0.57E+06 on Mesh   1 at (  21   1  25)
       ScaRC: iterations    70, residual  0.87E-08, convergence rate   0.67E+00
       ---------------------------------------------------------------
       Mesh    1
       Max CFL number:  0.21E+00 at (  20,   1,  23)
       Max divergence:  0.14E-01 at (  75,   1,   1)
       Min divergence: -0.39E-02 at (  75,   1,  39)
       Max div. error:  0.37E-01 at (  75,   1,   1)
       Max VN number:   0.95E-01 at (  31,   1,  40)
       Mesh    2
       Max CFL number:  0.46E+00 at (  25,   1,  14)
       Max divergence:  0.39E-01 at (  21,   1,  40)
       Min divergence: -0.35E-01 at (  41,   1,  40)
       Max div. error:  0.82E-01 at (  36,   1,   1)
       Max VN number:   0.95E-01 at (  39,   1,   1)
       Mesh    3
       Max CFL number:  0.14E+00 at (   1,   1,  40)
       Max divergence:  0.44E-03 at (   1,   1,  37)
       Min divergence: -0.39E-02 at (   1,   1,  40)
       Max div. error:  0.53E-02 at (   1,   1,   1)
       Max VN number:   0.95E-01 at (   1,   1,  40)
       Mesh    4
       Max CFL number:  0.14E+00 at (   1,   1,  40)
       Max divergence:  0.21E-05 at (   1,   1,  21)
       Min divergence: -0.14E-04 at (   1,   1,  40)
       Max div. error:  0.13E-04 at (   1,   1,  40)
       Max VN number:   0.95E-01 at (   1,   1,  40)
 
       Time Step      70   October 28, 2020  13:53:42
       Step Size:    0.147E-02 s, Total Time:       0.19 s
       Pressure Iterations:      1
       Maximum Velocity Error:  0.00E+00 on Mesh   1 at (  76   1  22)
       Maximum Pressure Error:  0.58E+06 on Mesh   1 at (  21   1  25)
       ScaRC: iterations    71, residual  0.81E-08, convergence rate   0.67E+00
       ---------------------------------------------------------------
       Mesh    1
       Max CFL number:  0.20E+00 at (  20,   1,  25)
       Max divergence:  0.14E-01 at (  75,   1,   1)
       Min divergence: -0.44E-02 at (  75,   1,  39)
       Max div. error:  0.39E-01 at (  75,   1,   1)
       Max VN number:   0.86E-01 at (  31,   1,  40)
       Mesh    2
       Max CFL number:  0.45E+00 at (  25,   1,  14)
       Max divergence:  0.42E-01 at (  21,   1,  40)
       Min divergence: -0.39E-01 at (  41,   1,  40)
       Max div. error:  0.84E-01 at (  36,   1,   1)
       Max VN number:   0.86E-01 at (  39,   1,   1)
       Mesh    3
       Max CFL number:  0.14E+00 at (   1,   1,  40)
       Max divergence:  0.37E-03 at (   1,   1,  37)
       Min divergence: -0.41E-02 at (   1,   1,  40)
       Max div. error:  0.57E-02 at (   1,   1,   1)
       Max VN number:   0.86E-01 at (   1,   1,  40)
       Mesh    4
       Max CFL number:  0.14E+00 at (   1,   1,  40)
       Max divergence:  0.83E-06 at (   3,   1,  37)
       Min divergence: -0.68E-05 at (   1,   1,  40)
       Max div. error:  0.20E-04 at (   1,   1,  40)
       Max VN number:   0.85E-01 at (   1,   1,  40)
 
       Time Step      80   October 28, 2020  13:53:44
       Step Size:    0.147E-02 s, Total Time:       0.20 s
       Pressure Iterations:      1
       Maximum Velocity Error:  0.00E+00 on Mesh   1 at (  76   1  22)
       Maximum Pressure Error:  0.58E+06 on Mesh   1 at (  21   1  25)
       ScaRC: iterations    71, residual  0.90E-08, convergence rate   0.67E+00
       ---------------------------------------------------------------
       Mesh    1
       Max CFL number:  0.23E+00 at (  20,   1,  25)
       Max divergence:  0.11E-01 at (  75,   1,   1)
       Min divergence: -0.46E-02 at (  75,   1,  39)
       Max div. error:  0.43E-01 at (  75,   1,   1)
       Max VN number:   0.86E-01 at (  31,   1,  40)
       Mesh    2
       Max CFL number:  0.48E+00 at (  25,   1,  14)
       Max divergence:  0.40E-01 at (  23,   1,  40)
       Min divergence: -0.34E-01 at (  42,   1,  40)
       Max div. error:  0.94E-01 at (  36,   1,   1)
       Max VN number:   0.86E-01 at (  39,   1,  40)
       Mesh    3
       Max CFL number:  0.15E+00 at (   1,   1,  40)
       Max divergence:  0.37E-03 at (   1,   1,  37)
       Min divergence: -0.38E-02 at (   1,   1,  40)
       Max div. error:  0.63E-02 at (   1,   1,   1)
       Max VN number:   0.86E-01 at (   1,   1,  40)
       Mesh    4
       Max CFL number:  0.15E+00 at (   1,   1,  40)
       Max divergence:  0.28E-05 at (   1,   1,  20)
       Min divergence: -0.13E-04 at (   1,   1,  40)
       Max div. error:  0.15E-04 at (   1,   1,  40)
       Max VN number:   0.85E-01 at (   1,   1,  40)
 
       Time Step      90   October 28, 2020  13:53:45
       Step Size:    0.132E-02 s, Total Time:       0.21 s
       Pressure Iterations:      1
       Maximum Velocity Error:  0.00E+00 on Mesh   1 at (  76   1  22)
       Maximum Pressure Error:  0.58E+06 on Mesh   1 at (  21   1  25)
       ScaRC: iterations    71, residual  0.99E-08, convergence rate   0.67E+00
       ---------------------------------------------------------------
       Mesh    1
       Max CFL number:  0.22E+00 at (  20,   1,  25)
       Max divergence:  0.13E-01 at (  75,   1,   1)
       Min divergence: -0.51E-02 at (  75,   1,  39)
       Max div. error:  0.43E-01 at (  75,   1,   1)
       Max VN number:   0.77E-01 at (  31,   1,  40)
       Mesh    2
       Max CFL number:  0.46E+00 at (  25,   1,  14)
       Max divergence:  0.46E-01 at (  22,   1,  40)
       Min divergence: -0.39E-01 at (  42,   1,  40)
       Max div. error:  0.94E-01 at (  36,   1,   1)
       Max VN number:   0.77E-01 at (  40,   1,  40)
       Mesh    3
       Max CFL number:  0.14E+00 at (   1,   1,  40)
       Max divergence:  0.40E-03 at (   1,   1,  37)
       Min divergence: -0.45E-02 at (   1,   1,  40)
       Max div. error:  0.62E-02 at (   1,   1,   1)
       Max VN number:   0.77E-01 at (   1,   1,  40)
       Mesh    4
       Max CFL number:  0.14E+00 at (   1,   1,  40)
       Max divergence:  0.88E-06 at (   1,   1,  37)
       Min divergence: -0.13E-04 at (   1,   1,  40)
       Max div. error:  0.17E-04 at (   1,   1,  40)
       Max VN number:   0.77E-01 at (   1,   1,  40)
 
       Time Step     100   October 28, 2020  13:53:47
       Step Size:    0.132E-02 s, Total Time:       0.23 s
       Pressure Iterations:      1
       Maximum Velocity Error:  0.00E+00 on Mesh   1 at (  76   1  22)
       Maximum Pressure Error:  0.58E+06 on Mesh   1 at (  21   1  25)
       ScaRC: iterations    72, residual  0.74E-08, convergence rate   0.67E+00
       ---------------------------------------------------------------
       Mesh    1
       Max CFL number:  0.24E+00 at (  20,   1,  25)
       Max divergence:  0.10E-01 at (  75,   1,   1)
       Min divergence: -0.54E-02 at (  75,   1,  39)
       Max div. error:  0.48E-01 at (  75,   1,   1)
       Max VN number:   0.77E-01 at (  32,   1,  40)
       Mesh    2
       Max CFL number:  0.48E+00 at (  25,   1,  14)
       Max divergence:  0.46E-01 at (  24,   1,  40)
       Min divergence: -0.36E-01 at (  43,   1,  40)
       Max div. error:  0.10E+00 at (  36,   1,   1)
       Max VN number:   0.77E-01 at (  40,   1,  40)
       Mesh    3
       Max CFL number:  0.15E+00 at (   1,   1,  40)
       Max divergence:  0.36E-03 at (   1,   1,  36)
       Min divergence: -0.43E-02 at (   1,   1,  40)
       Max div. error:  0.70E-02 at (   1,   1,   1)
       Max VN number:   0.77E-01 at (   1,   1,  40)
       Mesh    4
       Max CFL number:  0.15E+00 at (   1,   1,  40)
       Max divergence:  0.79E-06 at (   2,   1,   4)
       Min divergence: -0.10E-04 at (   1,   1,  40)
       Max div. error:  0.21E-04 at (   1,   1,  40)
       Max VN number:   0.77E-01 at (   1,   1,  40)
 
       Time Step     200   October 28, 2020  13:54:01
       Step Size:    0.960E-03 s, Total Time:       0.34 s
       Pressure Iterations:      1
       Maximum Velocity Error:  0.00E+00 on Mesh   1 at (  76   1  24)
       Maximum Pressure Error:  0.60E+06 on Mesh   1 at (  21   1  25)
       ScaRC: iterations    75, residual  0.70E-08, convergence rate   0.68E+00
       ---------------------------------------------------------------
       Mesh    1
       Max CFL number:  0.27E+00 at (  20,   1,  25)
       Max divergence:  0.11E-01 at (  75,   1,   1)
       Min divergence: -0.89E-02 at (   1,   1,  25)
       Max div. error:  0.63E-01 at (  75,   1,   1)
       Max VN number:   0.56E-01 at (  33,   1,  40)
       Mesh    2
       Max CFL number:  0.47E+00 at (  25,   1,  27)
       Max divergence:  0.83E-01 at (  26,   1,  40)
       Min divergence: -0.51E-01 at (  46,   1,   1)
       Max div. error:  0.14E+00 at (  36,   1,  40)
       Max VN number:   0.56E-01 at (  42,   1,  40)
       Mesh    3
       Max CFL number:  0.16E+00 at (   1,   1,  40)
       Max divergence:  0.64E-03 at (   1,   1,  35)
       Min divergence: -0.82E-02 at (   1,   1,  40)
       Max div. error:  0.95E-02 at (   1,   1,  40)
       Max VN number:   0.56E-01 at (   1,   1,  39)
       Mesh    4
       Max CFL number:  0.16E+00 at (   1,   1,  40)
       Max divergence:  0.14E-05 at (   1,   1,  35)
       Min divergence: -0.23E-04 at (   1,   1,  40)
       Max div. error:  0.26E-04 at (   1,   1,  40)
       Max VN number:   0.56E-01 at (   1,   1,  39)
 
       Time Step     300   October 28, 2020  13:54:15
       Step Size:    0.777E-03 s, Total Time:       0.43 s
       Pressure Iterations:      1
       Maximum Velocity Error:  0.00E+00 on Mesh   1 at (  76   1  24)
       Maximum Pressure Error:  0.61E+06 on Mesh   1 at (  21   1  25)
       ScaRC: iterations    75, residual  0.99E-08, convergence rate   0.68E+00
       ---------------------------------------------------------------
       Mesh    1
       Max CFL number:  0.28E+00 at (  20,   1,  25)
       Max divergence:  0.14E-01 at (  75,   1,   1)
       Min divergence: -0.12E-01 at (   1,   1,  25)
       Max div. error:  0.72E-01 at (  75,   1,   1)
       Max VN number:   0.45E-01 at (  33,   1,  40)
       Mesh    2
       Max CFL number:  0.45E+00 at (  25,   1,  14)
       Max divergence:  0.12E+00 at (  26,   1,  40)
       Min divergence: -0.67E-01 at (  47,   1,   1)
       Max div. error:  0.16E+00 at (  36,   1,   1)
       Max VN number:   0.45E-01 at (  44,   1,  40)
       Mesh    3
       Max CFL number:  0.16E+00 at (   1,   1,   4)
       Max divergence:  0.86E-03 at (   1,   1,  34)
       Min divergence: -0.13E-01 at (   1,   1,   1)
       Max div. error:  0.11E-01 at (   1,   1,   1)
       Max VN number:   0.45E-01 at (   1,   1,   2)
       Mesh    4
       Max CFL number:  0.16E+00 at (   1,   1,  40)
       Max divergence:  0.32E-05 at (   1,   1,  34)
       Min divergence: -0.38E-04 at (   1,   1,  40)
       Max div. error:  0.30E-04 at (   1,   1,  40)
       Max VN number:   0.45E-01 at (   1,   1,  38)
 
       Time Step     400   October 28, 2020  13:54:28
       Step Size:    0.698E-03 s, Total Time:       0.50 s
       Pressure Iterations:      1
       Maximum Velocity Error:  0.00E+00 on Mesh   1 at (  76   1  24)
       Maximum Pressure Error:  0.62E+06 on Mesh   1 at (  21   1  25)
       ScaRC: iterations    76, residual  0.78E-08, convergence rate   0.67E+00
       ---------------------------------------------------------------
       Mesh    1
       Max CFL number:  0.29E+00 at (  20,   1,  25)
       Max divergence:  0.11E-01 at (  22,   1,  40)
       Min divergence: -0.15E-01 at (   1,   1,  25)
       Max div. error:  0.83E-01 at (  75,   1,   1)
       Max VN number:   0.41E-01 at (  34,   1,  40)
       Mesh    2
       Max CFL number:  0.46E+00 at (  25,   1,  14)
       Max divergence:  0.14E+00 at (  28,   1,   1)
       Min divergence: -0.68E-01 at (  49,   1,   1)
       Max div. error:  0.18E+00 at (  36,   1,   1)
       Max VN number:   0.41E-01 at (  45,   1,  40)
       Mesh    3
       Max CFL number:  0.17E+00 at (   1,   1,  35)
       Max divergence:  0.19E-02 at (   1,   1,  35)
       Min divergence: -0.16E-01 at (   1,   1,   1)
       Max div. error:  0.12E-01 at (   1,   1,   1)
       Max VN number:   0.41E-01 at (   1,   1,  39)
       Mesh    4
       Max CFL number:  0.16E+00 at (   1,   1,  40)
       Max divergence:  0.77E-05 at (   1,   1,  33)
       Min divergence: -0.54E-04 at (   1,   1,  40)
       Max div. error:  0.35E-04 at (   1,   1,   1)
       Max VN number:   0.41E-01 at (   1,   1,  38)
 
       Time Step     500   October 28, 2020  13:54:40
       Step Size:    0.628E-03 s, Total Time:       0.57 s
       Pressure Iterations:      1
       Maximum Velocity Error:  0.28E-16 on Mesh   2 at (  76   1  18)
       Maximum Pressure Error:  0.63E+06 on Mesh   1 at (  21   1  25)
       ScaRC: iterations    76, residual  0.94E-08, convergence rate   0.67E+00
       ---------------------------------------------------------------
       Mesh    1
       Max CFL number:  0.30E+00 at (  20,   1,  25)
       Max divergence:  0.14E-01 at (  22,   1,  40)
       Min divergence: -0.17E-01 at (   1,   1,  25)
       Max div. error:  0.90E-01 at (  75,   1,   1)
       Max VN number:   0.36E-01 at (  34,   1,  40)
       Mesh    2
       Max CFL number:  0.46E+00 at (  25,   1,  14)
       Max divergence:  0.17E+00 at (  28,   1,   1)
       Min divergence: -0.75E-01 at (  51,   1,  40)
       Max div. error:  0.20E+00 at (  36,   1,  40)
       Max VN number:   0.37E-01 at (  46,   1,  40)
       Mesh    3
       Max CFL number:  0.17E+00 at (   1,   1,   6)
       Max divergence:  0.23E-02 at (   1,   1,   5)
       Min divergence: -0.20E-01 at (   1,   1,   1)
       Max div. error:  0.13E-01 at (   1,   1,   1)
       Max VN number:   0.37E-01 at (   1,   1,  39)
       Mesh    4
       Max CFL number:  0.16E+00 at (   1,   1,  40)
       Max divergence:  0.22E-04 at (   1,   1,  33)
       Min divergence: -0.11E-03 at (   1,   1,  39)
       Max div. error:  0.37E-04 at (   1,   1,   1)
       Max VN number:   0.36E-01 at (   1,   1,  37)
 
       Time Step     600   October 28, 2020  13:54:54
       Step Size:    0.628E-03 s, Total Time:       0.63 s
       Pressure Iterations:      1
       Maximum Velocity Error:  0.00E+00 on Mesh   1 at (  76   1  24)
       Maximum Pressure Error:  0.64E+06 on Mesh   1 at (  21   1  25)
       ScaRC: iterations    77, residual  0.99E-08, convergence rate   0.68E+00
       ---------------------------------------------------------------
       Mesh    1
       Max CFL number:  0.32E+00 at (  20,   1,  25)
       Max divergence:  0.16E-01 at (  22,   1,  40)
       Min divergence: -0.20E-01 at (   1,   1,  25)
       Max div. error:  0.10E+00 at (  75,   1,   1)
       Max VN number:   0.36E-01 at (  34,   1,  40)
       Mesh    2
       Max CFL number:  0.50E+00 at (  25,   1,  14)
       Max divergence:  0.19E+00 at (  29,   1,   1)
       Min divergence: -0.79E-01 at (  52,   1,  40)
       Max div. error:  0.23E+00 at (  36,   1,  40)
       Max VN number:   0.37E-01 at (  46,   1,  40)
       Mesh    3
       Max CFL number:  0.20E+00 at (   1,   1,   7)
       Max divergence:  0.27E-02 at (   1,   1,   5)
       Min divergence: -0.23E-01 at (   1,   1,   1)
       Max div. error:  0.16E-01 at (   1,   1,   1)
       Max VN number:   0.37E-01 at (   1,   1,  39)
       Mesh    4
       Max CFL number:  0.18E+00 at (   1,   1,  40)
       Max divergence:  0.68E-04 at (   1,   1,  32)
       Min divergence: -0.30E-03 at (   1,   1,  38)
       Max div. error:  0.44E-04 at (   1,   1,   1)
       Max VN number:   0.36E-01 at (   1,   1,  37)
 
       Time Step     700   October 28, 2020  13:55:07
       Step Size:    0.565E-03 s, Total Time:       0.69 s
       Pressure Iterations:      1
       Maximum Velocity Error:  0.00E+00 on Mesh   1 at (  76   1  25)
       Maximum Pressure Error:  0.65E+06 on Mesh   1 at (  21   1  25)
       ScaRC: iterations    78, residual  0.89E-08, convergence rate   0.68E+00
       ---------------------------------------------------------------
       Mesh    1
       Max CFL number:  0.31E+00 at (  20,   1,  25)
       Max divergence:  0.17E-01 at (  23,   1,  40)
       Min divergence: -0.21E-01 at (   1,   1,  25)
       Max div. error:  0.11E+00 at (  75,   1,   1)
       Max VN number:   0.33E-01 at (  35,   1,  40)
       Mesh    2
       Max CFL number:  0.48E+00 at (  25,   1,  14)
       Max divergence:  0.21E+00 at (  29,   1,   1)
       Min divergence: -0.80E-01 at (  54,   1,  40)
       Max div. error:  0.23E+00 at (  36,   1,  40)
       Max VN number:   0.33E-01 at (  47,   1,  40)
       Mesh    3
       Max CFL number:  0.20E+00 at (   1,   1,   7)
       Max divergence:  0.30E-02 at (   1,   1,   5)
       Min divergence: -0.28E-01 at (   1,   1,   1)
       Max div. error:  0.16E-01 at (   1,   1,   1)
       Max VN number:   0.33E-01 at (   1,   1,  39)
       Mesh    4
       Max CFL number:  0.17E+00 at (   2,   1,  40)
       Max divergence:  0.18E-03 at (   1,   1,  10)
       Min divergence: -0.87E-03 at (   1,   1,  38)
       Max div. error:  0.45E-04 at (   1,   1,   1)
       Max VN number:   0.33E-01 at (   1,   1,   4)
 
       Time Step     800   October 28, 2020  13:55:20
       Step Size:    0.508E-03 s, Total Time:       0.75 s
       Pressure Iterations:      1
       Maximum Velocity Error:  0.00E+00 on Mesh   1 at (  76   1  25)
       Maximum Pressure Error:  0.66E+06 on Mesh   1 at (  21   1  25)
       ScaRC: iterations    78, residual  0.10E-07, convergence rate   0.68E+00
       ---------------------------------------------------------------
       Mesh    1
       Max CFL number:  0.30E+00 at (  20,   1,  25)
       Max divergence:  0.19E-01 at (  23,   1,  40)
       Min divergence: -0.21E-01 at (   1,   1,  25)
       Max div. error:  0.11E+00 at (  75,   1,   1)
       Max VN number:   0.30E-01 at (  35,   1,  40)
       Mesh    2
       Max CFL number:  0.45E+00 at (  25,   1,  14)
       Max divergence:  0.23E+00 at (  29,   1,   1)
       Min divergence: -0.95E-01 at (  54,   1,  40)
       Max div. error:  0.24E+00 at (  36,   1,  40)
       Max VN number:   0.30E-01 at (  48,   1,  40)
       Mesh    3
       Max CFL number:  0.22E+00 at (   1,   1,   9)
       Max divergence:  0.36E-02 at (   1,   1,   4)
       Min divergence: -0.34E-01 at (   1,   1,   1)
       Max div. error:  0.16E-01 at (   1,   1,  40)
       Max VN number:   0.30E-01 at (   1,   1,  39)
       Mesh    4
       Max CFL number:  0.16E+00 at (   5,   1,   2)
       Max divergence:  0.33E-03 at (   1,   1,  32)
       Min divergence: -0.12E-02 at (   1,   1,  38)
       Max div. error:  0.45E-04 at (   1,   1,  40)
       Max VN number:   0.30E-01 at (   8,   1,   4)
 
       Time Step     900   October 28, 2020  13:55:33
       Step Size:    0.508E-03 s, Total Time:       0.80 s
       Pressure Iterations:      1
       Maximum Velocity Error:  0.00E+00 on Mesh   1 at (  76   1  25)
       Maximum Pressure Error:  0.68E+06 on Mesh   1 at (  21   1  25)
       ScaRC: iterations    79, residual  0.61E-08, convergence rate   0.68E+00
       ---------------------------------------------------------------
       Mesh    1
       Max CFL number:  0.31E+00 at (  20,   1,  25)
       Max divergence:  0.20E-01 at (  23,   1,  40)
       Min divergence: -0.23E-01 at (   1,   1,  25)
       Max div. error:  0.12E+00 at (  75,   1,   1)
       Max VN number:   0.30E-01 at (  35,   1,  40)
       Mesh    2
       Max CFL number:  0.47E+00 at (  25,   1,  14)
       Max divergence:  0.24E+00 at (  29,   1,   1)
       Min divergence: -0.90E-01 at (  56,   1,  40)
       Max div. error:  0.26E+00 at (  36,   1,  40)
       Max VN number:   0.30E-01 at (  48,   1,  40)
       Mesh    3
       Max CFL number:  0.27E+00 at (   1,   1,  12)
       Max divergence:  0.44E-02 at (   1,   1,   4)
       Min divergence: -0.38E-01 at (   1,   1,  40)
       Max div. error:  0.18E-01 at (   1,   1,  40)
       Max VN number:   0.30E-01 at (   1,   1,  40)
       Mesh    4
       Max CFL number:  0.17E+00 at (   1,   1,  15)
       Max divergence:  0.43E-03 at (   1,   1,   8)
       Min divergence: -0.14E-02 at (   1,   1,   3)
       Max div. error:  0.49E-04 at (   1,   1,  40)
       Max VN number:   0.30E-01 at (  26,   1,   5)
 
       Time Step    1000   October 28, 2020  13:55:46
       Step Size:    0.508E-03 s, Total Time:       0.85 s
       Pressure Iterations:      1
       Maximum Velocity Error:  0.56E-16 on Mesh   2 at (  76   1  30)
       Maximum Pressure Error:  0.69E+06 on Mesh   1 at (  21   1  25)
       ScaRC: iterations    79, residual  0.66E-08, convergence rate   0.68E+00
       ---------------------------------------------------------------
       Mesh    1
       Max CFL number:  0.33E+00 at (  20,   1,  25)
       Max divergence:  0.22E-01 at (  23,   1,  40)
       Min divergence: -0.25E-01 at (   1,   1,  25)
       Max div. error:  0.13E+00 at (  75,   1,   1)
       Max VN number:   0.30E-01 at (  35,   1,  40)
       Mesh    2
       Max CFL number:  0.49E+00 at (  25,   1,  14)
       Max divergence:  0.26E+00 at (  30,   1,   1)
       Min divergence: -0.98E-01 at (  57,   1,  40)
       Max div. error:  0.28E+00 at (  36,   1,  40)
       Max VN number:   0.30E-01 at (  48,   1,  40)
       Mesh    3
       Max CFL number:  0.33E+00 at (   1,   1,  11)
       Max divergence:  0.49E-02 at (   1,   1,  37)
       Min divergence: -0.46E-01 at (   1,   1,  40)
       Max div. error:  0.19E-01 at (   1,   1,  40)
       Max VN number:   0.30E-01 at (   1,   1,  40)
       Mesh    4
       Max CFL number:  0.18E+00 at (   1,   1,  14)
       Max divergence:  0.47E-03 at (   1,   1,   8)
       Min divergence: -0.17E-02 at (   1,   1,   3)
       Max div. error:  0.54E-04 at (   1,   1,  40)
       Max VN number:   0.30E-01 at (   1,   1,  37)
 
       Time Step    1100   October 28, 2020  13:55:58
       Step Size:    0.457E-03 s, Total Time:       0.90 s
       Pressure Iterations:      1
       Maximum Velocity Error:  0.00E+00 on Mesh   1 at (  76   1  25)
       Maximum Pressure Error:  0.70E+06 on Mesh   1 at (  21   1  25)
       ScaRC: iterations    79, residual  0.71E-08, convergence rate   0.68E+00
       ---------------------------------------------------------------
       Mesh    1
       Max CFL number:  0.31E+00 at (  20,   1,  25)
       Max divergence:  0.21E-01 at (  23,   1,  40)
       Min divergence: -0.25E-01 at (   1,   1,  25)
       Max div. error:  0.12E+00 at (  75,   1,   1)
       Max VN number:   0.27E-01 at (  36,   1,  40)
       Mesh    2
       Max CFL number:  0.46E+00 at (  25,   1,  14)
       Max divergence:  0.27E+00 at (  30,   1,   1)
       Min divergence: -0.95E-01 at (  58,   1,  40)
       Max div. error:  0.27E+00 at (  36,   1,  40)
       Max VN number:   0.27E-01 at (  49,   1,  40)
       Mesh    3
       Max CFL number:  0.34E+00 at (   1,   1,  10)
       Max divergence:  0.61E-02 at (   1,   1,   3)
       Min divergence: -0.51E-01 at (   1,   1,   1)
       Max div. error:  0.19E-01 at (   1,   1,  40)
       Max VN number:   0.27E-01 at (   1,   1,  40)
       Mesh    4
       Max CFL number:  0.17E+00 at (   1,   1,  15)
       Max divergence:  0.48E-03 at (   1,   1,   8)
       Min divergence: -0.18E-02 at (   1,   1,  38)
       Max div. error:  0.52E-04 at (   1,   1,  40)
       Max VN number:   0.27E-01 at (   1,   1,  37)
 
       Time Step    1200   October 28, 2020  13:56:11
       Step Size:    0.457E-03 s, Total Time:       0.94 s
       Pressure Iterations:      1
       Maximum Velocity Error:  0.00E+00 on Mesh   1 at (  76   1  25)
       Maximum Pressure Error:  0.71E+06 on Mesh   1 at (  21   1  25)
       ScaRC: iterations    79, residual  0.75E-08, convergence rate   0.68E+00
       ---------------------------------------------------------------
       Mesh    1
       Max CFL number:  0.32E+00 at (  20,   1,  25)
       Max divergence:  0.23E-01 at (  23,   1,  40)
       Min divergence: -0.26E-01 at (   1,   1,  25)
       Max div. error:  0.13E+00 at (  75,   1,   1)
       Max VN number:   0.27E-01 at (  35,   1,  40)
       Mesh    2
       Max CFL number:  0.47E+00 at (  25,   1,  14)
       Max divergence:  0.28E+00 at (  30,   1,   1)
       Min divergence: -0.98E-01 at (  59,   1,  40)
       Max div. error:  0.29E+00 at (  36,   1,  40)
       Max VN number:   0.27E-01 at (  49,   1,  40)
       Mesh    3
       Max CFL number:  0.36E+00 at (   1,   1,  32)
       Max divergence:  0.80E-02 at (   1,   1,   3)
       Min divergence: -0.56E-01 at (   1,   1,   1)
       Max div. error:  0.20E-01 at (   1,   1,  40)
       Max VN number:   0.27E-01 at (   1,   1,  40)
       Mesh    4
       Max CFL number:  0.17E+00 at (   1,   1,  15)
       Max divergence:  0.49E-03 at (   1,   1,  33)
       Min divergence: -0.20E-02 at (   1,   1,  38)
       Max div. error:  0.55E-04 at (   1,   1,  40)
       Max VN number:   0.27E-01 at (   1,   1,  37)
 
       Time Step    1300   October 28, 2020  13:56:23
       Step Size:    0.457E-03 s, Total Time:       0.99 s
       Pressure Iterations:      1
       Maximum Velocity Error:  0.00E+00 on Mesh   1 at (  76   1  25)
       Maximum Pressure Error:  0.72E+06 on Mesh   1 at (  21   1  25)
       ScaRC: iterations    79, residual  0.79E-08, convergence rate   0.68E+00
       ---------------------------------------------------------------
       Mesh    1
       Max CFL number:  0.33E+00 at (  20,   1,  25)
       Max divergence:  0.24E-01 at (  23,   1,  40)
       Min divergence: -0.28E-01 at (   1,   1,  25)
       Max div. error:  0.14E+00 at (  75,   1,   1)
       Max VN number:   0.27E-01 at (  36,   1,  40)
       Mesh    2
       Max CFL number:  0.49E+00 at (  25,   1,  14)
       Max divergence:  0.30E+00 at (  30,   1,   1)
       Min divergence: -0.11E+00 at (  59,   1,  40)
       Max div. error:  0.31E+00 at (  36,   1,  40)
       Max VN number:   0.27E-01 at (  49,   1,  40)
       Mesh    3
       Max CFL number:  0.38E+00 at (   8,   1,  32)
       Max divergence:  0.89E-02 at (   1,   1,  38)
       Min divergence: -0.65E-01 at (   1,   1,  40)
       Max div. error:  0.21E-01 at (   1,   1,  40)
       Max VN number:   0.27E-01 at (   1,   1,   1)
       Mesh    4
       Max CFL number:  0.18E+00 at (   1,   1,  15)
       Max divergence:  0.49E-03 at (   1,   1,   8)
       Min divergence: -0.21E-02 at (   1,   1,  38)
       Max div. error:  0.59E-04 at (   1,   1,  40)
       Max VN number:   0.27E-01 at (   1,   1,  37)
 
       Time Step    1400   October 28, 2020  13:56:36
       Step Size:    0.411E-03 s, Total Time:       1.03 s
       Pressure Iterations:      1
       Maximum Velocity Error:  0.14E-16 on Mesh   2 at (  76   1  16)
       Maximum Pressure Error:  0.73E+06 on Mesh   1 at (  21   1  25)
       ScaRC: iterations    79, residual  0.84E-08, convergence rate   0.68E+00
       ---------------------------------------------------------------
       Mesh    1
       Max CFL number:  0.30E+00 at (  20,   1,  25)
       Max divergence:  0.24E-01 at (  23,   1,  40)
       Min divergence: -0.26E-01 at (   1,   1,  25)
       Max div. error:  0.13E+00 at (  75,   1,   1)
       Max VN number:   0.24E-01 at (  36,   1,  40)
       Mesh    2
       Max CFL number:  0.46E+00 at (  25,   1,  14)
       Max divergence:  0.31E+00 at (  30,   1,   1)
       Min divergence: -0.11E+00 at (  59,   1,  40)
       Max div. error:  0.29E+00 at (  36,   1,   1)
       Max VN number:   0.24E-01 at (  51,   1,  40)
       Mesh    3
       Max CFL number:  0.39E+00 at (   4,   1,   9)
       Max divergence:  0.94E-02 at (   1,   1,  38)
       Min divergence: -0.69E-01 at (   1,   1,   1)
       Max div. error:  0.20E-01 at (   1,   1,   1)
       Max VN number:   0.24E-01 at (   1,   1,   1)
       Mesh    4
       Max CFL number:  0.17E+00 at (   1,   1,  32)
       Max divergence:  0.54E-03 at (   1,   1,   8)
       Min divergence: -0.21E-02 at (   1,   1,   3)
       Max div. error:  0.56E-04 at (   1,   1,   1)
       Max VN number:   0.24E-01 at (   1,   1,  37)
 
       Time Step    1500   October 28, 2020  13:56:49
       Step Size:    0.411E-03 s, Total Time:       1.07 s
       Pressure Iterations:      1
       Maximum Velocity Error:  0.56E-16 on Mesh   2 at (  76   1  29)
       Maximum Pressure Error:  0.74E+06 on Mesh   1 at (  21   1  25)
       ScaRC: iterations    79, residual  0.87E-08, convergence rate   0.68E+00
       ---------------------------------------------------------------
       Mesh    1
       Max CFL number:  0.31E+00 at (  20,   1,  25)
       Max divergence:  0.24E-01 at (  24,   1,  40)
       Min divergence: -0.28E-01 at (   1,   1,  25)
       Max div. error:  0.14E+00 at (  75,   1,   1)
       Max VN number:   0.24E-01 at (  36,   1,  40)
       Mesh    2
       Max CFL number:  0.46E+00 at (  25,   1,  14)
       Max divergence:  0.31E+00 at (  30,   1,   1)
       Min divergence: -0.10E+00 at (  59,   1,   1)
       Max div. error:  0.30E+00 at (  15,   1,   1)
       Max VN number:   0.24E-01 at (  50,   1,   1)
       Mesh    3
       Max CFL number:  0.41E+00 at (  14,   1,   8)
       Max divergence:  0.88E-02 at (   1,   1,   2)
       Min divergence: -0.64E-01 at (   1,   1,   1)
       Max div. error:  0.21E-01 at (   1,   1,   1)
       Max VN number:   0.24E-01 at (   1,   1,  40)
       Mesh    4
       Max CFL number:  0.17E+00 at (   7,   1,  33)
       Max divergence:  0.55E-03 at (   1,   1,  33)
       Min divergence: -0.23E-02 at (   1,   1,  39)
       Max div. error:  0.58E-04 at (   1,   1,   1)
       Max VN number:   0.24E-01 at (   1,   1,   4)
 
       Time Step    1600   October 28, 2020  13:57:01
       Step Size:    0.411E-03 s, Total Time:       1.11 s
       Pressure Iterations:      1
       Maximum Velocity Error:  0.00E+00 on Mesh   1 at (  76   1  25)
       Maximum Pressure Error:  0.75E+06 on Mesh   1 at (  21   1  25)
       ScaRC: iterations    79, residual  0.88E-08, convergence rate   0.68E+00
       ---------------------------------------------------------------
       Mesh    1
       Max CFL number:  0.31E+00 at (  20,   1,  25)
       Max divergence:  0.25E-01 at (  24,   1,  40)
       Min divergence: -0.29E-01 at (   1,   1,  25)
       Max div. error:  0.15E+00 at (  75,   1,   1)
       Max VN number:   0.24E-01 at (  36,   1,  40)
       Mesh    2
       Max CFL number:  0.48E+00 at (  25,   1,  27)
       Max divergence:  0.32E+00 at (  30,   1,  40)
       Min divergence: -0.96E-01 at (  55,   1,  40)
       Max div. error:  0.33E+00 at (  36,   1,  40)
       Max VN number:   0.24E-01 at (  48,   1,  40)
       Mesh    3
       Max CFL number:  0.44E+00 at (  27,   1,   6)
       Max divergence:  0.85E-02 at (   2,   1,   3)
       Min divergence: -0.68E-01 at (   1,   1,  40)
       Max div. error:  0.22E-01 at (   1,   1,  40)
       Max VN number:   0.24E-01 at (   1,   1,  40)
       Mesh    4
       Max CFL number:  0.20E+00 at (   1,   1,  11)
       Max divergence:  0.67E-03 at (   6,   1,  34)
       Min divergence: -0.22E-02 at (   6,   1,  39)
       Max div. error:  0.61E-04 at (   1,   1,  40)
       Max VN number:   0.24E-01 at (  18,   1,   4)
 
       Time Step    1700   October 28, 2020  13:57:14
       Step Size:    0.370E-03 s, Total Time:       1.15 s
       Pressure Iterations:      1
       Maximum Velocity Error:  0.56E-16 on Mesh   3 at (  76   1  38)
       Maximum Pressure Error:  0.77E+06 on Mesh   1 at (  21   1  25)
       ScaRC: iterations    79, residual  0.98E-08, convergence rate   0.68E+00
       ---------------------------------------------------------------
       Mesh    1
       Max CFL number:  0.29E+00 at (  20,   1,  25)
       Max divergence:  0.25E-01 at (  23,   1,  40)
       Min divergence: -0.27E-01 at (   1,   1,  25)
       Max div. error:  0.14E+00 at (  75,   1,  40)
       Max VN number:   0.22E-01 at (  36,   1,  40)
       Mesh    2
       Max CFL number:  0.46E+00 at (  25,   1,  14)
       Max divergence:  0.34E+00 at (  29,   1,   1)
       Min divergence: -0.10E+00 at (  56,   1,  40)
       Max div. error:  0.33E+00 at (  36,   1,   1)
       Max VN number:   0.22E-01 at (  52,   1,  40)
       Mesh    3
       Max CFL number:  0.45E+00 at (  19,   1,  37)
       Max divergence:  0.11E-01 at (   1,   1,  39)
       Min divergence: -0.58E-01 at (   1,   1,   1)
       Max div. error:  0.21E-01 at (   1,   1,   1)
       Max VN number:   0.22E-01 at (   1,   1,   1)
       Mesh    4
       Max CFL number:  0.23E+00 at (   5,   1,   7)
       Max divergence:  0.16E-02 at (   1,   1,   5)
       Min divergence: -0.41E-02 at (   1,   1,   2)
       Max div. error:  0.59E-04 at (   1,   1,   1)
       Max VN number:   0.22E-01 at (   9,   1,  36)
 
       Time Step    1800   October 28, 2020  13:57:26
       Step Size:    0.370E-03 s, Total Time:       1.19 s
       Pressure Iterations:      1
       Maximum Velocity Error:  0.28E-16 on Mesh   3 at (  76   1  16)
       Maximum Pressure Error:  0.81E+06 on Mesh   1 at (  21   1  25)
       ScaRC: iterations    80, residual  0.59E-08, convergence rate   0.68E+00
       ---------------------------------------------------------------
       Mesh    1
       Max CFL number:  0.29E+00 at (  20,   1,  25)
       Max divergence:  0.25E-01 at (  24,   1,  40)
       Min divergence: -0.28E-01 at (   1,   1,  25)
       Max div. error:  0.15E+00 at (  75,   1,   1)
       Max VN number:   0.22E-01 at (  36,   1,  40)
       Mesh    2
       Max CFL number:  0.48E+00 at (  25,   1,  27)
       Max divergence:  0.35E+00 at (  30,   1,  40)
       Min divergence: -0.10E+00 at (  57,   1,   1)
       Max div. error:  0.36E+00 at (  36,   1,  40)
       Max VN number:   0.22E-01 at (  49,   1,   1)
       Mesh    3
       Max CFL number:  0.46E+00 at (  11,   1,   5)
       Max divergence:  0.10E-01 at (   1,   1,   2)
       Min divergence: -0.38E-01 at (   1,   1,  40)
       Max div. error:  0.23E-01 at (   1,   1,  40)
       Max VN number:   0.22E-01 at (   1,   1,  39)
       Mesh    4
       Max CFL number:  0.34E+00 at (   1,   1,  40)
       Max divergence:  0.25E-02 at (   8,   1,   7)
       Min divergence: -0.44E-02 at (  14,   1,   2)
       Max div. error:  0.63E-04 at (   1,   1,  40)
       Max VN number:   0.22E-01 at (   7,   1,   4)
 
       Time Step    1900   October 28, 2020  13:57:39
       Step Size:    0.333E-03 s, Total Time:       1.23 s
       Pressure Iterations:      1
       Maximum Velocity Error:  0.00E+00 on Mesh   1 at (  76   1  25)
       Maximum Pressure Error:  0.87E+06 on Mesh   1 at (  21   1  25)
       ScaRC: iterations    80, residual  0.63E-08, convergence rate   0.68E+00
       ---------------------------------------------------------------
       Mesh    1
       Max CFL number:  0.27E+00 at (  20,   1,  25)
       Max divergence:  0.23E-01 at (  24,   1,  40)
       Min divergence: -0.26E-01 at (   1,   1,  25)
       Max div. error:  0.15E+00 at (  75,   1,  40)
       Max VN number:   0.19E-01 at (  36,   1,  40)
       Mesh    2
       Max CFL number:  0.44E+00 at (  25,   1,  27)
       Max divergence:  0.36E+00 at (  30,   1,   1)
       Min divergence: -0.13E+00 at (  50,   1,  40)
       Max div. error:  0.33E+00 at (  36,   1,  40)
       Max VN number:   0.19E-01 at (  46,   1,  40)
       Mesh    3
       Max CFL number:  0.42E+00 at (  16,   1,   7)
       Max divergence:  0.83E-02 at (   1,   1,  38)
       Min divergence: -0.60E-01 at (   1,   1,  40)
       Max div. error:  0.23E-01 at (   1,   1,  40)
       Max VN number:   0.19E-01 at (  11,   1,  37)
       Mesh    4
       Max CFL number:  0.37E+00 at (   3,   1,   2)
       Max divergence:  0.24E-02 at (  17,   1,   9)
       Min divergence: -0.39E-02 at (   2,   1,  39)
       Max div. error:  0.62E-04 at (   1,   1,  40)
       Max VN number:   0.19E-01 at (  39,   1,  34)
 
       Time Step    2000   October 28, 2020  13:57:52
       Step Size:    0.299E-03 s, Total Time:       1.26 s
       Pressure Iterations:      1
       Maximum Velocity Error:  0.56E-16 on Mesh   3 at (  76   1   5)
       Maximum Pressure Error:  0.11E+07 on Mesh   1 at (  21   1  25)
       ScaRC: iterations    80, residual  0.80E-08, convergence rate   0.68E+00
       ---------------------------------------------------------------
       Mesh    1
       Max CFL number:  0.24E+00 at (  20,   1,  25)
       Max divergence:  0.22E-01 at (  24,   1,  40)
       Min divergence: -0.26E-01 at (  75,   1,  39)
       Max div. error:  0.16E+00 at (  75,   1,  40)
       Max VN number:   0.17E-01 at (  36,   1,  40)
       Mesh    2
       Max CFL number:  0.46E+00 at (  25,   1,  14)
       Max divergence:  0.36E+00 at (  29,   1,   1)
       Min divergence: -0.10E+00 at (  57,   1,  40)
       Max div. error:  0.43E+00 at (  35,   1,   1)
       Max VN number:   0.17E-01 at (  42,   1,   1)
       Mesh    3
       Max CFL number:  0.36E+00 at (  69,   1,  38)
       Max divergence:  0.92E-02 at (   1,   1,  39)
       Min divergence: -0.44E-01 at (   1,   1,   1)
       Max div. error:  0.26E-01 at (   1,   1,   1)
       Max VN number:   0.17E-01 at (   1,   1,   3)
       Mesh    4
       Max CFL number:  0.35E+00 at (  19,   1,   1)
       Max divergence:  0.20E-02 at (  44,   1,  29)
       Min divergence: -0.31E-02 at (  23,   1,  40)
       Max div. error:  0.71E-04 at (   1,   1,   1)
       Max VN number:   0.17E-01 at (  54,   1,  34)
 
       Time Step    2100   October 28, 2020  13:58:04
       Step Size:    0.299E-03 s, Total Time:       1.29 s
       Pressure Iterations:      1
       Maximum Velocity Error:  0.28E-16 on Mesh   3 at (  76   1  16)
       Maximum Pressure Error:  0.10E+07 on Mesh   1 at (  21   1  25)
       ScaRC: iterations    80, residual  0.89E-08, convergence rate   0.68E+00
       ---------------------------------------------------------------
       Mesh    1
       Max CFL number:  0.24E+00 at (  20,   1,  25)
       Max divergence:  0.21E-01 at (  24,   1,  40)
       Min divergence: -0.39E-01 at (  75,   1,  40)
       Max div. error:  0.17E+00 at (  75,   1,  40)
       Max VN number:   0.17E-01 at (  36,   1,  40)
       Mesh    2
       Max CFL number:  0.49E+00 at (  25,   1,  27)
       Max divergence:  0.41E+00 at (  30,   1,  40)
       Min divergence: -0.11E+00 at (  54,   1,   1)
       Max div. error:  0.50E+00 at (  35,   1,  40)
       Max VN number:   0.17E-01 at (  49,   1,   1)
       Mesh    3
       Max CFL number:  0.37E+00 at (  57,   1,   6)
       Max divergence:  0.10E-01 at (   1,   1,   2)
       Min divergence: -0.44E-01 at (   2,   1,   1)
       Max div. error:  0.26E-01 at (   1,   1,  40)
       Max VN number:   0.17E-01 at (  13,   1,   4)
       Mesh    4
       Max CFL number:  0.38E+00 at (  11,   1,  39)
       Max divergence:  0.19E-02 at (  57,   1,  28)
       Min divergence: -0.27E-02 at (  41,   1,  40)
       Max div. error:  0.72E-04 at (   1,   1,  40)
       Max VN number:   0.17E-01 at (  70,   1,  35)
 
       Time Step    2200   October 28, 2020  13:58:17
       Step Size:    0.269E-03 s, Total Time:       1.31 s
       Pressure Iterations:      1
       Maximum Velocity Error:  0.00E+00 on Mesh   1 at (  76   1  25)
       Maximum Pressure Error:  0.12E+07 on Mesh   1 at (  21   1  25)
       ScaRC: iterations    80, residual  0.72E-08, convergence rate   0.67E+00
       ---------------------------------------------------------------
       Mesh    1
       Max CFL number:  0.22E+00 at (  20,   1,  25)
       Max divergence:  0.20E-01 at (  24,   1,  40)
       Min divergence: -0.23E-01 at (  75,   1,  39)
       Max div. error:  0.13E+00 at (  75,   1,   1)
       Max VN number:   0.16E-01 at (  36,   1,  40)
       Mesh    2
       Max CFL number:  0.44E+00 at (  25,   1,  27)
       Max divergence:  0.34E+00 at (  28,   1,  40)
       Min divergence: -0.19E+00 at (  45,   1,  40)
       Max div. error:  0.34E+00 at (  35,   1,  40)
       Max VN number:   0.16E-01 at (  43,   1,  40)
       Mesh    3
       Max CFL number:  0.33E+00 at (  15,   1,  10)
       Max divergence:  0.10E-01 at (   1,   1,   2)
       Min divergence: -0.53E-01 at (   1,   1,  40)
       Max div. error:  0.18E-01 at (   1,   1,  40)
       Max VN number:   0.16E-01 at (   2,   1,  38)
       Mesh    4
       Max CFL number:  0.35E+00 at (  26,   1,  40)
       Max divergence:  0.24E-02 at (  74,   1,  31)
       Min divergence: -0.36E-02 at (  16,   1,  40)
       Max div. error:  0.51E-04 at (   1,   1,  40)
       Max VN number:   0.16E-01 at (   1,   1,  37)
 
       Time Step    2300   October 28, 2020  13:58:29
       Step Size:    0.266E-03 s, Total Time:       1.34 s
       Pressure Iterations:      1
       Maximum Velocity Error:  0.11E-15 on Mesh   3 at (  76   1   7)
       Maximum Pressure Error:  0.14E+07 on Mesh   1 at (  21   1  25)
       ScaRC: iterations    80, residual  0.89E-08, convergence rate   0.67E+00
       ---------------------------------------------------------------
       Mesh    1
       Max CFL number:  0.22E+00 at (  20,   1,  25)
       Max divergence:  0.20E-01 at (  23,   1,  40)
       Min divergence: -0.31E-01 at (  75,   1,  40)
       Max div. error:  0.16E+00 at (  75,   1,   1)
       Max VN number:   0.15E-01 at (  36,   1,  40)
       Mesh    2
       Max CFL number:  0.45E+00 at (  25,   1,  14)
       Max divergence:  0.37E+00 at (  29,   1,   1)
       Min divergence: -0.11E+00 at (  54,   1,  40)
       Max div. error:  0.47E+00 at (  35,   1,   1)
       Max VN number:   0.16E-01 at (  50,   1,  40)
       Mesh    3
       Max CFL number:  0.32E+00 at (  27,   1,  12)
       Max divergence:  0.91E-02 at (   2,   1,   3)
       Min divergence: -0.45E-01 at (   1,   1,   1)
       Max div. error:  0.24E-01 at (   1,   1,   1)
       Max VN number:   0.15E-01 at (  14,   1,  37)
       Mesh    4
       Max CFL number:  0.34E+00 at (  40,   1,  40)
       Max divergence:  0.17E-02 at (   3,   1,   5)
       Min divergence: -0.49E-02 at (  27,   1,  40)
       Max div. error:  0.66E-04 at (   1,   1,   1)
       Max VN number:   0.15E-01 at (   1,   1,   3)
 
       Time Step    2400   October 28, 2020  13:58:42
       Step Size:    0.266E-03 s, Total Time:       1.37 s
       Pressure Iterations:      1
       Maximum Velocity Error:  0.00E+00 on Mesh   1 at (  76   1  25)
       Maximum Pressure Error:  0.16E+07 on Mesh   1 at (  21   1  25)
       ScaRC: iterations    80, residual  0.76E-08, convergence rate   0.67E+00
       ---------------------------------------------------------------
       Mesh    1
       Max CFL number:  0.22E+00 at (  20,   1,  25)
       Max divergence:  0.21E-01 at (  24,   1,  40)
       Min divergence: -0.24E-01 at (  75,   1,  39)
       Max div. error:  0.13E+00 at (  75,   1,   1)
       Max VN number:   0.15E-01 at (  36,   1,  40)
       Mesh    2
       Max CFL number:  0.44E+00 at (  34,   1,  14)
       Max divergence:  0.35E+00 at (  28,   1,   1)
       Min divergence: -0.20E+00 at (  46,   1,   1)
       Max div. error:  0.35E+00 at (  35,   1,   1)
       Max VN number:   0.16E-01 at (  43,   1,   1)
       Mesh    3
       Max CFL number:  0.32E+00 at (  14,   1,  33)
       Max divergence:  0.10E-01 at (   1,   1,  39)
       Min divergence: -0.57E-01 at (   1,   1,   1)
       Max div. error:  0.19E-01 at (   1,   1,   1)
       Max VN number:   0.15E-01 at (   8,   1,   3)
       Mesh    4
       Max CFL number:  0.34E+00 at (  58,   1,  40)
       Max divergence:  0.12E-02 at (  26,   1,  14)
       Min divergence: -0.67E-02 at (  12,   1,   1)
       Max div. error:  0.53E-04 at (   1,   1,   1)
       Max VN number:   0.15E-01 at (   1,   1,   3)
 
       Time Step    2500   October 28, 2020  13:58:55
       Step Size:    0.266E-03 s, Total Time:       1.39 s
       Pressure Iterations:      1
       Maximum Velocity Error:  0.11E-15 on Mesh   2 at (  76   1   4)
       Maximum Pressure Error:  0.16E+07 on Mesh   1 at (  21   1  25)
       ScaRC: iterations    81, residual  0.67E-08, convergence rate   0.67E+00
       ---------------------------------------------------------------
       Mesh    1
       Max CFL number:  0.22E+00 at (  20,   1,  25)
       Max divergence:  0.20E-01 at (  24,   1,  40)
       Min divergence: -0.55E-01 at (  75,   1,   1)
       Max div. error:  0.18E+00 at (  75,   1,   1)
       Max VN number:   0.15E-01 at (  36,   1,  40)
       Mesh    2
       Max CFL number:  0.47E+00 at (  25,   1,  27)
       Max divergence:  0.41E+00 at (  30,   1,  40)
       Min divergence: -0.10E+00 at (  13,   1,   1)
       Max div. error:  0.53E+00 at (  35,   1,  40)
       Max VN number:   0.16E-01 at (  51,   1,   1)
       Mesh    3
       Max CFL number:  0.38E+00 at (   4,   1,  10)
       Max divergence:  0.97E-02 at (   1,   1,  38)
       Min divergence: -0.47E-01 at (   1,   1,   1)
       Max div. error:  0.28E-01 at (   1,   1,  40)
       Max VN number:   0.15E-01 at (  20,   1,   3)
       Mesh    4
       Max CFL number:  0.33E+00 at (  27,   1,   4)
       Max divergence:  0.11E-02 at (  25,   1,   3)
       Min divergence: -0.69E-02 at (  23,   1,   1)
       Max div. error:  0.78E-04 at (   1,   1,  40)
       Max VN number:   0.15E-01 at (   1,   1,  37)
 
       Time Step    2600   October 28, 2020  13:59:07
       Step Size:    0.266E-03 s, Total Time:       1.42 s
       Pressure Iterations:      1
       Maximum Velocity Error:  0.56E-16 on Mesh   2 at (  76   1  32)
       Maximum Pressure Error:  0.12E+07 on Mesh   1 at (  21   1  25)
       ScaRC: iterations    80, residual  0.75E-08, convergence rate   0.67E+00
       ---------------------------------------------------------------
       Mesh    1
       Max CFL number:  0.23E+00 at (  20,   1,  25)
       Max divergence:  0.21E-01 at (  24,   1,  40)
       Min divergence: -0.24E-01 at (  75,   1,  39)
       Max div. error:  0.13E+00 at (  75,   1,   1)
       Max VN number:   0.15E-01 at (  36,   1,  40)
       Mesh    2
       Max CFL number:  0.44E+00 at (  25,   1,  27)
       Max divergence:  0.36E+00 at (  28,   1,  40)
       Min divergence: -0.19E+00 at (  44,   1,  40)
       Max div. error:  0.35E+00 at (  35,   1,  40)
       Max VN number:   0.16E-01 at (  42,   1,  40)
       Mesh    3
       Max CFL number:  0.36E+00 at (   7,   1,  10)
       Max divergence:  0.10E-01 at (   1,   1,   2)
       Min divergence: -0.55E-01 at (   1,   1,  40)
       Max div. error:  0.19E-01 at (   1,   1,  40)
       Max VN number:   0.15E-01 at (   6,   1,  38)
       Mesh    4
       Max CFL number:  0.35E+00 at (  51,   1,   3)
       Max divergence:  0.18E-02 at (   5,   1,  36)
       Min divergence: -0.52E-02 at (  30,   1,   1)
       Max div. error:  0.53E-04 at (   1,   1,  40)
       Max VN number:   0.15E-01 at (   1,   1,  38)
 
       Time Step    2700   October 28, 2020  13:59:20
       Step Size:    0.292E-03 s, Total Time:       1.45 s
       Pressure Iterations:      1
       Maximum Velocity Error:  0.56E-16 on Mesh   2 at (  76   1  28)
       Maximum Pressure Error:  0.13E+07 on Mesh   1 at (  21   1  25)
       ScaRC: iterations    80, residual  0.90E-08, convergence rate   0.67E+00
       ---------------------------------------------------------------
       Mesh    1
       Max CFL number:  0.25E+00 at (  20,   1,  25)
       Max divergence:  0.22E-01 at (  24,   1,  40)
       Min divergence: -0.46E-01 at (  75,   1,  40)
       Max div. error:  0.18E+00 at (  75,   1,   1)
       Max VN number:   0.17E-01 at (  36,   1,  40)
       Mesh    2
       Max CFL number:  0.50E+00 at (  25,   1,  14)
       Max divergence:  0.41E+00 at (  30,   1,   1)
       Min divergence: -0.11E+00 at (  54,   1,  40)
       Max div. error:  0.51E+00 at (  35,   1,   1)
       Max VN number:   0.17E-01 at (  50,   1,  40)
       Mesh    3
       Max CFL number:  0.43E+00 at (   4,   1,  32)
       Max divergence:  0.11E-01 at (   1,   1,  39)
       Min divergence: -0.45E-01 at (   1,   1,   1)
       Max div. error:  0.26E-01 at (   1,   1,   1)
       Max VN number:   0.17E-01 at (   1,   1,   2)
       Mesh    4
       Max CFL number:  0.39E+00 at (  63,   1,   1)
       Max divergence:  0.22E-02 at (  12,   1,  37)
       Min divergence: -0.78E-02 at (  17,   1,  40)
       Max div. error:  0.72E-04 at (   1,   1,   1)
       Max VN number:   0.17E-01 at (   1,   1,  37)
 
       Time Step    2800   October 28, 2020  13:59:32
       Step Size:    0.263E-03 s, Total Time:       1.48 s
       Pressure Iterations:      1
       Maximum Velocity Error:  0.56E-16 on Mesh   1 at (  76   1   2)
       Maximum Pressure Error:  0.16E+07 on Mesh   1 at (  21   1  25)
       ScaRC: iterations    80, residual  0.81E-08, convergence rate   0.67E+00
       ---------------------------------------------------------------
       Mesh    1
       Max CFL number:  0.23E+00 at (  20,   1,  25)
       Max divergence:  0.22E-01 at (  24,   1,  40)
       Min divergence: -0.25E-01 at (  75,   1,  39)
       Max div. error:  0.14E+00 at (  75,   1,   1)
       Max VN number:   0.15E-01 at (  36,   1,  40)
       Mesh    2
       Max CFL number:  0.45E+00 at (  34,   1,  14)
       Max divergence:  0.37E+00 at (  28,   1,   1)
       Min divergence: -0.20E+00 at (  46,   1,   1)
       Max div. error:  0.37E+00 at (  35,   1,   1)
       Max VN number:   0.15E-01 at (  43,   1,   1)
       Mesh    3
       Max CFL number:  0.39E+00 at (   8,   1,  32)
       Max divergence:  0.10E-01 at (   1,   1,  39)
       Min divergence: -0.59E-01 at (   1,   1,   1)
       Max div. error:  0.21E-01 at (   1,   1,   1)
       Max VN number:   0.15E-01 at (   9,   1,   2)
       Mesh    4
       Max CFL number:  0.32E+00 at (  75,   1,   2)
       Max divergence:  0.26E-02 at (   6,   1,   5)
       Min divergence: -0.56E-02 at (  24,   1,  40)
       Max div. error:  0.56E-04 at (   1,   1,   1)
       Max VN number:   0.15E-01 at (   7,   1,  36)
 
       Time Step    2900   October 28, 2020  13:59:45
       Step Size:    0.263E-03 s, Total Time:       1.50 s
       Pressure Iterations:      1
       Maximum Velocity Error:  0.56E-16 on Mesh   1 at (  76   1  12)
       Maximum Pressure Error:  0.12E+07 on Mesh   1 at (  21   1  25)
       ScaRC: iterations    81, residual  0.69E-08, convergence rate   0.67E+00
       ---------------------------------------------------------------
       Mesh    1
       Max CFL number:  0.23E+00 at (  20,   1,  25)
       Max divergence:  0.21E-01 at (  24,   1,  40)
       Min divergence: -0.58E-01 at (  75,   1,   1)
       Max div. error:  0.19E+00 at (  75,   1,   1)
       Max VN number:   0.15E-01 at (  36,   1,  40)
       Mesh    2
       Max CFL number:  0.46E+00 at (  25,   1,  27)
       Max divergence:  0.43E+00 at (  30,   1,  40)
       Min divergence: -0.11E+00 at (  13,   1,   1)
       Max div. error:  0.54E+00 at (  35,   1,  40)
       Max VN number:   0.15E-01 at (  51,   1,   1)
       Mesh    3
       Max CFL number:  0.40E+00 at (   5,   1,  11)
       Max divergence:  0.11E-01 at (   1,   1,   2)
       Min divergence: -0.39E-01 at (   5,   1,   1)
       Max div. error:  0.29E-01 at (   1,   1,  40)
       Max VN number:   0.15E-01 at (  21,   1,   3)
       Mesh    4
       Max CFL number:  0.32E+00 at (  51,   1,  36)
       Max divergence:  0.16E-02 at (  12,   1,  27)
       Min divergence: -0.74E-02 at (   1,   1,   1)
[...]
       Max div. error:  0.21E+00 at (  75,   1,   1)
       Max VN number:   0.15E-01 at (  36,   1,  40)
       Mesh    2
       Max CFL number:  0.49E+00 at (  25,   1,  27)
       Max divergence:  0.47E+00 at (  30,   1,  40)
       Min divergence: -0.13E+00 at (  13,   1,   1)
       Max div. error:  0.61E+00 at (  35,   1,  40)
       Max VN number:   0.15E-01 at (  52,   1,   1)
       Mesh    3
       Max CFL number:  0.43E+00 at (   7,   1,  12)
       Max divergence:  0.12E-01 at (   1,   1,   2)
       Min divergence: -0.38E-01 at (   3,   1,   1)
       Max div. error:  0.33E-01 at (   1,   1,  40)
       Max VN number:   0.15E-01 at (  24,   1,   3)
       Mesh    4
       Max CFL number:  0.38E+00 at (  27,   1,  10)
       Max divergence:  0.17E-02 at (  42,   1,   6)
       Min divergence: -0.67E-02 at (  42,   1,  40)
       Max div. error:  0.90E-04 at (   1,   1,  40)
       Max VN number:   0.15E-01 at (   1,   1,   3)
 
       Time Step    3800   October 28, 2020  14:01:39
       Step Size:    0.236E-03 s, Total Time:       1.74 s
       Pressure Iterations:      1
       Maximum Velocity Error:  0.56E-16 on Mesh   1 at (  76   1   3)
       Maximum Pressure Error:  0.16E+07 on Mesh   1 at (  21   1  25)
       ScaRC: iterations    80, residual  0.83E-08, convergence rate   0.67E+00
       ---------------------------------------------------------------
       Mesh    1
       Max CFL number:  0.21E+00 at (  20,   1,  25)
       Max divergence:  0.22E-01 at (  24,   1,  40)
       Min divergence: -0.23E-01 at (  75,   1,  39)
       Max div. error:  0.13E+00 at (  75,   1,   1)
       Max VN number:   0.14E-01 at (  36,   1,  40)
       Mesh    2
       Max CFL number:  0.41E+00 at (  25,   1,  27)
       Max divergence:  0.37E+00 at (  28,   1,  40)
       Min divergence: -0.19E+00 at (  45,   1,  40)
       Max div. error:  0.35E+00 at (  35,   1,  40)
       Max VN number:   0.14E-01 at (  43,   1,  40)
       Mesh    3
       Max CFL number:  0.39E+00 at (  18,   1,  12)
       Max divergence:  0.11E-01 at (   1,   1,   2)
       Min divergence: -0.59E-01 at (   1,   1,  40)
       Max div. error:  0.19E-01 at (   1,   1,  40)
       Max VN number:   0.14E-01 at (   5,   1,  38)
       Mesh    4
       Max CFL number:  0.34E+00 at (  61,   1,  35)
       Max divergence:  0.36E-02 at (   1,   1,  15)
       Min divergence: -0.83E-02 at (   7,   1,  40)
       Max div. error:  0.53E-04 at (   1,   1,  40)
       Max VN number:   0.14E-01 at (  10,   1,   5)
 
       Time Step    3900   October 28, 2020  14:01:52
       Step Size:    0.260E-03 s, Total Time:       1.76 s
       Pressure Iterations:      1
       Maximum Velocity Error:  0.11E-15 on Mesh   3 at (  76   1   2)
       Maximum Pressure Error:  0.15E+07 on Mesh   1 at (  21   1  25)
       ScaRC: iterations    80, residual  0.95E-08, convergence rate   0.67E+00
       ---------------------------------------------------------------
       Mesh    1
       Max CFL number:  0.23E+00 at (  20,   1,  25)
       Max divergence:  0.22E-01 at (  24,   1,  40)
       Min divergence: -0.41E-01 at (  75,   1,  40)
       Max div. error:  0.16E+00 at (  75,   1,   1)
       Max VN number:   0.15E-01 at (  36,   1,  40)
       Mesh    2
       Max CFL number:  0.46E+00 at (  25,   1,  14)
       Max divergence:  0.42E+00 at (  30,   1,   1)
       Min divergence: -0.12E+00 at (  54,   1,  40)
       Max div. error:  0.47E+00 at (  34,   1,   1)
       Max VN number:   0.15E-01 at (  50,   1,  40)
       Mesh    3
       Max CFL number:  0.42E+00 at (  22,   1,  12)
       Max divergence:  0.11E-01 at (   1,   1,  39)
       Min divergence: -0.51E-01 at (   1,   1,   1)
       Max div. error:  0.24E-01 at (   1,   1,   1)
       Max VN number:   0.15E-01 at (   1,   1,   2)
       Mesh    4
       Max CFL number:  0.39E+00 at (   2,   1,  11)
       Max divergence:  0.31E-02 at (  14,   1,  13)
       Min divergence: -0.92E-02 at (  18,   1,  40)
       Max div. error:  0.65E-04 at (   1,   1,   1)
       Max VN number:   0.15E-01 at (  23,   1,   4)
 
       Time Step    4000   October 28, 2020  14:02:05
       Step Size:    0.260E-03 s, Total Time:       1.79 s
       Pressure Iterations:      1
       Maximum Velocity Error:  0.56E-16 on Mesh   1 at (  76   1   9)
       Maximum Pressure Error:  0.14E+07 on Mesh   1 at (  21   1  25)
       ScaRC: iterations    80, residual  0.90E-08, convergence rate   0.67E+00
       ---------------------------------------------------------------
       Mesh    1
       Max CFL number:  0.24E+00 at (  20,   1,  25)
       Max divergence:  0.24E-01 at (  24,   1,  40)
       Min divergence: -0.28E-01 at (  75,   1,  39)
       Max div. error:  0.16E+00 at (  75,   1,   1)
       Max VN number:   0.15E-01 at (  36,   1,  40)
       Mesh    2
       Max CFL number:  0.47E+00 at (  34,   1,  14)
       Max divergence:  0.40E+00 at (  28,   1,   1)
       Min divergence: -0.20E+00 at (  46,   1,   1)
       Max div. error:  0.42E+00 at (  35,   1,   1)
       Max VN number:   0.15E-01 at (  43,   1,   1)
       Mesh    3
       Max CFL number:  0.41E+00 at (  34,   1,  12)
       Max divergence:  0.11E-01 at (   1,   1,  39)
       Min divergence: -0.61E-01 at (   1,   1,   1)
       Max div. error:  0.23E-01 at (   1,   1,   1)
       Max VN number:   0.15E-01 at (  11,   1,   2)
       Mesh    4
       Max CFL number:  0.38E+00 at (   6,   1,  11)
       Max divergence:  0.23E-02 at (  28,   1,  10)
       Min divergence: -0.85E-02 at (  29,   1,  40)
       Max div. error:  0.63E-04 at (   1,   1,   1)
       Max VN number:   0.15E-01 at (  35,   1,   4)
 
       Time Step    4100   October 28, 2020  14:02:19
       Step Size:    0.260E-03 s, Total Time:       1.81 s
       Pressure Iterations:      1
       Maximum Velocity Error:  0.56E-16 on Mesh   1 at (  76   1   1)
       Maximum Pressure Error:  0.18E+07 on Mesh   1 at (  21   1  25)
       ScaRC: iterations    81, residual  0.77E-08, convergence rate   0.67E+00
       ---------------------------------------------------------------
       Mesh    1
       Max CFL number:  0.24E+00 at (  20,   1,  25)
       Max divergence:  0.23E-01 at (  24,   1,  40)
       Min divergence: -0.68E-01 at (  75,   1,   1)
       Max div. error:  0.21E+00 at (  75,   1,   1)
       Max VN number:   0.15E-01 at (  36,   1,  40)
       Mesh    2
       Max CFL number:  0.48E+00 at (  25,   1,  27)
       Max divergence:  0.48E+00 at (  31,   1,  40)
       Min divergence: -0.13E+00 at (  13,   1,   1)
       Max div. error:  0.60E+00 at (  35,   1,  40)
       Max VN number:   0.15E-01 at (  52,   1,   1)
       Mesh    3
       Max CFL number:  0.43E+00 at (   6,   1,  12)
       Max divergence:  0.12E-01 at (   1,   1,   2)
       Min divergence: -0.40E-01 at (   3,   1,   1)
       Max div. error:  0.32E-01 at (   1,   1,  40)
       Max VN number:   0.15E-01 at (  23,   1,   3)
       Mesh    4
       Max CFL number:  0.38E+00 at (  27,   1,  10)
       Max divergence:  0.18E-02 at (  15,   1,  32)
       Min divergence: -0.71E-02 at (  41,   1,  40)
       Max div. error:  0.88E-04 at (   1,   1,  40)
       Max VN number:   0.15E-01 at (   1,   1,   3)
 
       Time Step    4200   October 28, 2020  14:02:32
       Step Size:    0.233E-03 s, Total Time:       1.84 s
       Pressure Iterations:      1
       Maximum Velocity Error:  0.56E-16 on Mesh   1 at (  76   1   4)
       Maximum Pressure Error:  0.16E+07 on Mesh   1 at (  21   1  25)
       ScaRC: iterations    80, residual  0.88E-08, convergence rate   0.67E+00
       ---------------------------------------------------------------
       Mesh    1
       Max CFL number:  0.21E+00 at (  20,   1,  25)
       Max divergence:  0.22E-01 at (  24,   1,  40)
       Min divergence: -0.24E-01 at (  75,   1,  39)
       Max div. error:  0.14E+00 at (  75,   1,   1)
       Max VN number:   0.14E-01 at (  36,   1,  40)
       Mesh    2
       Max CFL number:  0.41E+00 at (  47,   1,  13)
       Max divergence:  0.38E+00 at (  28,   1,  40)
       Min divergence: -0.19E+00 at (  44,   1,  40)
       Max div. error:  0.36E+00 at (  35,   1,  40)
       Max VN number:   0.14E-01 at (  42,   1,  40)
       Mesh    3
       Max CFL number:  0.39E+00 at (  18,   1,  12)
       Max divergence:  0.11E-01 at (   1,   1,   2)
       Min divergence: -0.58E-01 at (   1,   1,  40)
       Max div. error:  0.20E-01 at (   1,   1,  40)
       Max VN number:   0.14E-01 at (   5,   1,  38)
       Mesh    4
       Max CFL number:  0.35E+00 at (  61,   1,  34)
       Max divergence:  0.38E-02 at (   1,   1,  15)
       Min divergence: -0.94E-02 at (   7,   1,  40)
       Max div. error:  0.55E-04 at (   1,   1,  40)
       Max VN number:   0.14E-01 at (  10,   1,   5)
 
       Time Step    4300   October 28, 2020  14:02:45
       Step Size:    0.257E-03 s, Total Time:       1.86 s
       Pressure Iterations:      1
       Maximum Velocity Error:  0.56E-16 on Mesh   1 at (  76   1  14)
       Maximum Pressure Error:  0.15E+07 on Mesh   1 at (  21   1  25)
       ScaRC: iterations    80, residual  0.95E-08, convergence rate   0.67E+00
       ---------------------------------------------------------------
       Mesh    1
       Max CFL number:  0.23E+00 at (  20,   1,  25)
       Max divergence:  0.22E-01 at (  24,   1,  40)
       Min divergence: -0.38E-01 at (  75,   1,  40)
       Max div. error:  0.16E+00 at (  75,   1,   1)
       Max VN number:   0.15E-01 at (  36,   1,  40)
       Mesh    2
       Max CFL number:  0.45E+00 at (  25,   1,  14)
       Max divergence:  0.42E+00 at (  30,   1,   1)
       Min divergence: -0.13E+00 at (  53,   1,  40)
       Max div. error:  0.45E+00 at (  34,   1,   1)
       Max VN number:   0.15E-01 at (  50,   1,  40)
       Mesh    3
       Max CFL number:  0.42E+00 at (  21,   1,  12)
       Max divergence:  0.11E-01 at (   1,   1,  39)
       Min divergence: -0.54E-01 at (   1,   1,   1)
       Max div. error:  0.23E-01 at (   1,   1,   1)
       Max VN number:   0.15E-01 at (   1,   1,   2)
       Mesh    4
       Max CFL number:  0.39E+00 at (   2,   1,  11)
       Max divergence:  0.32E-02 at (  13,   1,  15)
       Min divergence: -0.10E-01 at (  18,   1,  40)
       Max div. error:  0.62E-04 at (   1,   1,   1)
       Max VN number:   0.15E-01 at (  23,   1,   4)
 
       Time Step    4400   October 28, 2020  14:02:58
       Step Size:    0.257E-03 s, Total Time:       1.89 s
       Pressure Iterations:      1
       Maximum Velocity Error:  0.56E-16 on Mesh   1 at (  76   1  15)
       Maximum Pressure Error:  0.15E+07 on Mesh   1 at (  21   1  25)
       ScaRC: iterations    80, residual  0.95E-08, convergence rate   0.67E+00
       ---------------------------------------------------------------
       Mesh    1
       Max CFL number:  0.23E+00 at (  20,   1,  25)
       Max divergence:  0.24E-01 at (  24,   1,  40)
       Min divergence: -0.29E-01 at (  75,   1,  39)
       Max div. error:  0.16E+00 at (  75,   1,  40)
       Max VN number:   0.15E-01 at (  36,   1,  40)
       Mesh    2
       Max CFL number:  0.47E+00 at (  25,   1,  14)
       Max divergence:  0.41E+00 at (  28,   1,   1)
       Min divergence: -0.19E+00 at (  45,   1,   1)
       Max div. error:  0.44E+00 at (  35,   1,   1)
       Max VN number:   0.15E-01 at (  43,   1,   1)
       Mesh    3
       Max CFL number:  0.42E+00 at (  33,   1,  12)
       Max divergence:  0.11E-01 at (   1,   1,  39)
       Min divergence: -0.57E-01 at (   1,   1,   1)
       Max div. error:  0.24E-01 at (   1,   1,   1)
       Max VN number:   0.15E-01 at (  10,   1,   2)
       Mesh    4
       Max CFL number:  0.39E+00 at (  57,   1,   7)
       Max divergence:  0.24E-02 at (  28,   1,   9)
       Min divergence: -0.91E-02 at (  29,   1,  40)
       Max div. error:  0.67E-04 at (   1,   1,   1)
       Max VN number:   0.15E-01 at (  35,   1,   4)
 
       Time Step    4500   October 28, 2020  14:03:12
       Step Size:    0.257E-03 s, Total Time:       1.91 s
       Pressure Iterations:      1
       Maximum Velocity Error:  0.56E-16 on Mesh   1 at (  76   1   7)
       Maximum Pressure Error:  0.19E+07 on Mesh   1 at (  21   1  25)
       ScaRC: iterations    81, residual  0.74E-08, convergence rate   0.67E+00
       ---------------------------------------------------------------
       Mesh    1
       Max CFL number:  0.24E+00 at (  20,   1,  25)
       Max divergence:  0.23E-01 at (  24,   1,  40)
       Min divergence: -0.61E-01 at (  75,   1,   1)
       Max div. error:  0.19E+00 at (  75,   1,  40)
       Max VN number:   0.15E-01 at (  36,   1,  40)
       Mesh    2
       Max CFL number:  0.46E+00 at (  25,   1,  27)
       Max divergence:  0.47E+00 at (  31,   1,  40)
       Min divergence: -0.12E+00 at (  55,   1,   1)
       Max div. error:  0.56E+00 at (  35,   1,  40)
       Max VN number:   0.15E-01 at (  51,   1,   1)
       Mesh    3
       Max CFL number:  0.43E+00 at (   6,   1,  12)
       Max divergence:  0.12E-01 at (   1,   1,   2)
       Min divergence: -0.42E-01 at (   2,   1,   1)
       Max div. error:  0.30E-01 at (   1,   1,  40)
       Max VN number:   0.15E-01 at (  23,   1,   3)
       Mesh    4
       Max CFL number:  0.38E+00 at (  27,   1,  10)
       Max divergence:  0.19E-02 at (  41,   1,   8)
       Min divergence: -0.76E-02 at (  41,   1,  40)
       Max div. error:  0.81E-04 at (   1,   1,  40)
       Max VN number:   0.15E-01 at (   1,   1,   3)
 
       Time Step    4600   October 28, 2020  14:03:26
       Step Size:    0.230E-03 s, Total Time:       1.94 s
       Pressure Iterations:      1
       Maximum Velocity Error:  0.56E-16 on Mesh   1 at (  76   1  11)
       Maximum Pressure Error:  0.16E+07 on Mesh   1 at (  21   1  25)
       ScaRC: iterations    80, residual  0.93E-08, convergence rate   0.67E+00
       ---------------------------------------------------------------
       Mesh    1
       Max CFL number:  0.21E+00 at (  20,   1,  25)
       Max divergence:  0.23E-01 at (  24,   1,  40)
       Min divergence: -0.25E-01 at (  75,   1,  39)
       Max div. error:  0.14E+00 at (  75,   1,   1)
       Max VN number:   0.13E-01 at (  36,   1,  40)
       Mesh    2
       Max CFL number:  0.41E+00 at (  25,   1,  27)
       Max divergence:  0.39E+00 at (  28,   1,  40)
       Min divergence: -0.18E+00 at (  44,   1,  40)
       Max div. error:  0.38E+00 at (  35,   1,  40)
       Max VN number:   0.13E-01 at (  42,   1,  40)
       Mesh    3
       Max CFL number:  0.39E+00 at (  17,   1,  12)
       Max divergence:  0.12E-01 at (   1,   1,   2)
       Min divergence: -0.58E-01 at (   1,   1,  40)
       Max div. error:  0.21E-01 at (   1,   1,  40)
       Max VN number:   0.13E-01 at (   4,   1,  38)
       Mesh    4
       Max CFL number:  0.35E+00 at (  60,   1,  34)
       Max divergence:  0.37E-02 at (   1,   1,  14)
       Min divergence: -0.96E-02 at (   7,   1,  40)
       Max div. error:  0.57E-04 at (   1,   1,  40)
       Max VN number:   0.13E-01 at (   9,   1,   5)
 
       Time Step    4700   October 28, 2020  14:03:39
       Step Size:    0.254E-03 s, Total Time:       1.96 s
       Pressure Iterations:      1
       Maximum Velocity Error:  0.56E-16 on Mesh   1 at (  76   1   1)
       Maximum Pressure Error:  0.16E+07 on Mesh   1 at (  21   1  25)
       ScaRC: iterations    80, residual  0.93E-08, convergence rate   0.67E+00
       ---------------------------------------------------------------
       Mesh    1
       Max CFL number:  0.23E+00 at (  20,   1,  25)
       Max divergence:  0.23E-01 at (  24,   1,  40)
       Min divergence: -0.35E-01 at (  75,   1,  40)
       Max div. error:  0.15E+00 at (  75,   1,   1)
       Max VN number:   0.15E-01 at (  36,   1,  40)
       Mesh    2
       Max CFL number:  0.44E+00 at (  49,   1,  13)
       Max divergence:  0.41E+00 at (  30,   1,   1)
       Min divergence: -0.14E+00 at (  52,   1,  40)
       Max div. error:  0.42E+00 at (  34,   1,   1)
       Max VN number:   0.15E-01 at (  50,   1,  40)
       Mesh    3
       Max CFL number:  0.42E+00 at (  21,   1,  12)
       Max divergence:  0.11E-01 at (   3,   1,   3)
       Min divergence: -0.57E-01 at (   1,   1,   1)
       Max div. error:  0.21E-01 at (   1,   1,   1)
       Max VN number:   0.15E-01 at (   1,   1,   2)
       Mesh    4
       Max CFL number:  0.39E+00 at (   2,   1,  11)
       Max divergence:  0.33E-02 at (  13,   1,  14)
       Min divergence: -0.10E-01 at (  18,   1,  40)
       Max div. error:  0.59E-04 at (   1,   1,   1)
       Max VN number:   0.15E-01 at (  21,   1,   5)
 
       Time Step    4800   October 28, 2020  14:03:52
       Step Size:    0.254E-03 s, Total Time:       1.99 s
       Pressure Iterations:      1
       Maximum Velocity Error:  0.56E-16 on Mesh   1 at (  76   1  19)
       Maximum Pressure Error:  0.15E+07 on Mesh   1 at (  21   1  25)
       ScaRC: iterations    80, residual  0.10E-07, convergence rate   0.67E+00
       ---------------------------------------------------------------
       Mesh    1
       Max CFL number:  0.23E+00 at (  20,   1,  25)
       Max divergence:  0.24E-01 at (  24,   1,  40)
       Min divergence: -0.29E-01 at (  75,   1,  39)
       Max div. error:  0.17E+00 at (  75,   1,  40)
       Max VN number:   0.15E-01 at (  36,   1,  40)
       Mesh    2
       Max CFL number:  0.48E+00 at (  25,   1,  14)
       Max divergence:  0.42E+00 at (  28,   1,   1)
       Min divergence: -0.16E+00 at (  45,   1,   1)
       Max div. error:  0.47E+00 at (  35,   1,   1)
       Max VN number:   0.15E-01 at (  42,   1,   1)
       Mesh    3
       Max CFL number:  0.42E+00 at (  33,   1,  12)
       Max divergence:  0.11E-01 at (   1,   1,  39)
       Min divergence: -0.52E-01 at (   1,   1,   1)
       Max div. error:  0.26E-01 at (   1,   1,   1)
       Max VN number:   0.15E-01 at (  10,   1,   2)
       Mesh    4
       Max CFL number:  0.39E+00 at (  57,   1,   7)
       Max divergence:  0.25E-02 at (  28,   1,   8)
       Min divergence: -0.93E-02 at (  29,   1,  40)
       Max div. error:  0.71E-04 at (   1,   1,   1)
       Max VN number:   0.15E-01 at (  34,   1,   4)
 
       Time Step    4855   October 28, 2020  14:03:59
       Step Size:    0.132E-03 s, Total Time:       2.00 s
       Pressure Iterations:      1
       Maximum Velocity Error:  0.11E-15 on Mesh   2 at (  76   1   4)
       Maximum Pressure Error:  0.18E+07 on Mesh   1 at (  21   1  25)
       ScaRC: iterations    80, residual  0.77E-08, convergence rate   0.67E+00
       ---------------------------------------------------------------
       Mesh    1
       Max CFL number:  0.12E+00 at (  20,   1,  25)
       Max divergence:  0.66E-01 at (  75,   1,  40)
       Min divergence: -0.21E-01 at (  75,   1,  39)
       Max div. error:  0.64E-01 at (  75,   1,   1)
       Max VN number:   0.77E-02 at (  36,   1,  40)
       Mesh    2
       Max CFL number:  0.23E+00 at (  36,   1,  13)
       Max divergence:  0.33E+00 at (  26,   1,  40)
       Min divergence: -0.30E+00 at (  49,   1,   1)
       Max div. error:  0.14E+00 at (  35,   1,   1)
       Max VN number:   0.77E-02 at (  46,   1,   1)
       Mesh    3
       Max CFL number:  0.22E+00 at (   1,   1,  12)
       Max divergence:  0.91E-02 at (   1,   1,   3)
       Min divergence: -0.85E-01 at (   1,   1,   1)
       Max div. error:  0.84E-02 at (   1,   1,   1)
       Max VN number:   0.77E-02 at (  16,   1,   3)
       Mesh    4
       Max CFL number:  0.20E+00 at (  65,   1,   6)
       Max divergence:  0.21E-02 at (  34,   1,  10)
       Min divergence: -0.85E-02 at (  35,   1,  40)
       Max div. error:  0.23E-04 at (   1,   1,   1)
       Max VN number:   0.77E-02 at (  41,   1,   4)
 


 Time Stepping Wall Clock Time (s):      627.770
 Total Elapsed Wall Clock Time (s):      649.601

STOP: FDS completed successfully (CHID: dancing_eddies_mgm_expol)
