
 Fire Dynamics Simulator

 Current Date     : February 19, 2020  19:29:53
 Revision         : -master
 Revision Date    : Wed Feb 19 18:38:00 2020 +0100
 Compiler         : Intel ifort 18.0.1
 Compilation Date : Feb 19, 2020 18:48:59

 MPI Enabled;    Number of MPI Processes:       4
 OpenMP Enabled; Number of OpenMP Threads:      4

 MPI version: 3.1
 MPI library version: Intel(R) MPI Library 2018 Update 1 for Linux* OS


 Job TITLE        : Shunn et al. (2012) JCP, Problem 3, FLUX_LIMITER=CHARM
 Job ID string    : shunn3_4mesh_64_scarc


 Grid Dimensions, Mesh     1

   Cells in the X Direction            32
   Cells in the Y Direction             1
   Cells in the Z Direction            32
   Number of Grid Cells              1024


 Physical Dimensions, Mesh     1

   Length (m)                       1.000
   Width  (m)                       0.100
   Height (m)                       1.000
   Initial Time Step (s)            0.017

 Grid Dimensions, Mesh     2

   Cells in the X Direction            32
   Cells in the Y Direction             1
   Cells in the Z Direction            32
   Number of Grid Cells              1024


 Physical Dimensions, Mesh     2

   Length (m)                       1.000
   Width  (m)                       0.100
   Height (m)                       1.000
   Initial Time Step (s)            0.017

 Grid Dimensions, Mesh     3

   Cells in the X Direction            32
   Cells in the Y Direction             1
   Cells in the Z Direction            32
   Number of Grid Cells              1024


 Physical Dimensions, Mesh     3

   Length (m)                       1.000
   Width  (m)                       0.100
   Height (m)                       1.000
   Initial Time Step (s)            0.017

 Grid Dimensions, Mesh     4

   Cells in the X Direction            32
   Cells in the Y Direction             1
   Cells in the Z Direction            32
   Number of Grid Cells              1024


 Physical Dimensions, Mesh     4

   Length (m)                       1.000
   Width  (m)                       0.100
   Height (m)                       1.000
   Initial Time Step (s)            0.017

Total Number of Grid Cells          4096


 Miscellaneous Parameters

   Simulation Start Time (s)          0.0
   Simulation End Time (s)            1.0
   Ambient Temperature (C):         20.00


 Mass Fraction Transformation Matrix to Convert Species Mixtures (Columns) to Primitive Species (Rows)

                         BACKGROU  SCALAR  
   BACKGROUND            1.000000  0.000000
   SCALAR                0.000000  1.000000


 Primitive Species Information

   BACKGROUND
   Gas Species
   Molecular Weight (g/mol)            50.00000
   Ambient Density (kg/m^3)            5.000
   Enthalpy of Formation (J/kg)        2.98E+05

   SCALAR
   Gas Species
   Molecular Weight (g/mol)            10.00000
   Ambient Density (kg/m^3)            1.000
   Enthalpy of Formation (J/kg)        2.98E+05


 Tracked (Lumped) Species Information

   BACKGROUND
   Molecular Weight (g/mol)            50.00000
   Ambient Density (kg/m^3)            5.000
   Initial Mass Fraction               1.000
   Enthalpy of Formation (J/kg)      2.98E+05

   Sub Species                    Mass Fraction     Mole Fraction
   BACKGROUND                     1.000000E+00      1.000000E+00
 
     Viscosity (kg/m/s) Ambient,  293 K:  1.00E-03
                                  500 K:  1.00E-03
                                 1000 K:  1.00E-03
                                 1500 K:  1.00E-03
   Therm. Cond. (W/m/K) Ambient,  293 K:  1.41E+00
                                  500 K:  1.41E+00
                                 1000 K:  1.41E+00
                                 1500 K:  1.41E+00
        Enthalpy (J/kg) Ambient,  293 K:  2.93E+05
                                  500 K:  5.00E+05
                                 1000 K:  1.00E+06
                                 1500 K:  1.50E+06
    Spec. Heat (J/kg/K) Ambient,  293 K:  1.00E+03
                                  500 K:  1.00E+03
                                 1000 K:  1.00E+03
                                 1500 K:  1.00E+03
   Diff. Coeff. (m^2/s) Ambient,  293 K:  1.49E-05
                                  500 K:  3.69E-05
                                 1000 K:  1.17E-04
                                 1500 K:  2.30E-04

   SCALAR
   Molecular Weight (g/mol)            10.00000
   Ambient Density (kg/m^3)            1.000
   Initial Mass Fraction               0.000
   Enthalpy of Formation (J/kg)      2.98E+05

   Sub Species                    Mass Fraction     Mole Fraction
   SCALAR                         1.000000E+00      1.000000E+00
 
     Viscosity (kg/m/s) Ambient,  293 K:  1.00E-03
                                  500 K:  1.00E-03
                                 1000 K:  1.00E-03
                                 1500 K:  1.00E-03
   Therm. Cond. (W/m/K) Ambient,  293 K:  1.41E+00
                                  500 K:  1.41E+00
                                 1000 K:  1.41E+00
                                 1500 K:  1.41E+00
        Enthalpy (J/kg) Ambient,  293 K:  2.93E+05
                                  500 K:  5.00E+05
                                 1000 K:  1.00E+06
                                 1500 K:  1.50E+06
    Spec. Heat (J/kg/K) Ambient,  293 K:  1.00E+03
                                  500 K:  1.00E+03
                                 1000 K:  1.00E+03
                                 1500 K:  1.00E+03
   Diff. Coeff. (m^2/s) Ambient,  293 K:  2.57E-05
                                  500 K:  6.40E-05
                                 1000 K:  2.03E-04
                                 1500 K:  3.98E-04


 Material Information


 Surface Conditions

   0 INERT (DEFAULT)

   1 OPEN
     Passive Vent to Atmosphere

   2 MIRROR
     Symmetry Plane

   3 INTERPOLATED

   4 PERIODIC

   5 HVAC

   6 MASSLESS TRACER

   7 DROPLET

   8 EVACUATION_OUTFLOW
     Normal Velocity (m/s)         0.000

   9 MASSLESS TARGET

  10 PERIODIC WIND

  11 SLICE


 Device Coordinates

     1 Coords:     -0.000313      0.000000     -0.000313, Make: null, ID: scarc-iter, Quantity: SCARC ITERATIONS
     2 Coords:     -0.000313      0.000000     -0.000313, Make: null, ID: scarc-rate, Quantity: SCARC CONVERGENCE RATE
     3 Coords:     -0.000313      0.000000     -0.000313, Make: null, ID: scarc-res, Quantity: SCARC RESIDUAL


 Slice File Information, Mesh     1

   Sampling Interval (s)             0.001

   1 Nodes:   0  32   1   1   0  32, Quantity: VELOCITY
   2 Nodes:   0  32   1   1   0  32, Quantity: U-VELOCITY
   3 Nodes:   0  32   1   1   0  32, Quantity: W-VELOCITY
   4 Nodes:   0  32   1   1   0  32, Quantity: DENSITY
   5 Nodes:   0  32   1   1   0  32, Quantity: DIVERGENCE
   6 Nodes:   0  32   1   1   0  32, Quantity: SCALAR MASS FRACTION
   7 Nodes:   0  32   1   1   0  32, Quantity: TEMPERATURE
   8 Nodes:   0  32   1   1   0  32, Quantity: H
   9 Nodes:   0  32   1   1   0  32, Quantity: PRESSURE
  10 Nodes:   0  32   1   1   0  32, Quantity: VISCOSITY


 SCARC Information

   Discretization        STRUCTURED
   Global solver             KRYLOV
   Storage technique        COMPACT
   Preconditioner           PARDISO
   Max iterations              1000
   Stopping accuracy       0.10E-07
 
 

 Run Time Diagnostics

       Time Step       1   February 19, 2020  19:29:53
       Step Size:    0.129E-01 s, Total Time:       0.01 s
       Pressure Iterations:      1
       Maximum Velocity Error:  0.56E-16 on Mesh   1 at (   0   1  19)
       Maximum Pressure Error:  0.51E+01 on Mesh   4 at (   8   1   7)
       ScaRC: iterations    60, residual  0.83E-08, convergence rate   0.66E+00
       ---------------------------------------------------------------
       Mesh    1
       Max CFL number:  0.44E+00 at (   7,   1,   7)
       Max divergence:  0.20E+00 at (  24,   1,   8)
       Min divergence: -0.95E+00 at (  25,   1,  25)
       Max div. error:  0.46E-06 at (  20,   1,   1)
       Max VN number:   0.73E-01 at (   9,   1,   9)
       Mesh    2
       Max CFL number:  0.44E+00 at (   7,   1,   7)
       Max divergence:  0.20E+00 at (  24,   1,   8)
       Min divergence: -0.95E+00 at (  25,   1,  25)
       Max div. error:  0.46E-06 at (  32,   1,  26)
       Max VN number:   0.73E-01 at (  25,   1,  25)
       Mesh    3
       Max CFL number:  0.44E+00 at (   7,   1,   7)
       Max divergence:  0.20E+00 at (   8,   1,  24)
       Min divergence: -0.95E+00 at (  25,   1,  25)
       Max div. error:  0.46E-06 at (  26,   1,  32)
       Max VN number:   0.73E-01 at (  25,   1,  25)
       Mesh    4
       Max CFL number:  0.44E+00 at (   7,   1,   7)
       Max divergence:  0.20E+00 at (   8,   1,  24)
       Min divergence: -0.95E+00 at (  25,   1,  25)
       Max div. error:  0.46E-06 at (  19,   1,  32)
       Max VN number:   0.73E-01 at (  25,   1,  25)
 
       Time Step       2   February 19, 2020  19:29:53
       Step Size:    0.129E-01 s, Total Time:       0.03 s
       Pressure Iterations:      1
       Maximum Velocity Error:  0.56E-16 on Mesh   1 at (   0   1  30)
       Maximum Pressure Error:  0.62E+01 on Mesh   1 at (  24   1  24)
       ScaRC: iterations    61, residual  0.54E-08, convergence rate   0.66E+00
       ---------------------------------------------------------------
       Mesh    1
       Max CFL number:  0.47E+00 at (   7,   1,   7)
       Max divergence:  0.41E+00 at (  24,   1,   8)
       Min divergence: -0.19E+01 at (  25,   1,  25)
       Max div. error:  0.71E-06 at (  17,   1,   1)
       Max VN number:   0.71E-01 at (  25,   1,  25)
       Mesh    2
       Max CFL number:  0.47E+00 at (   7,   1,   7)
       Max divergence:  0.41E+00 at (  24,   1,   8)
       Min divergence: -0.19E+01 at (  25,   1,  25)
       Max div. error:  0.71E-06 at (  18,   1,   1)
       Max VN number:   0.71E-01 at (  25,   1,  25)
       Mesh    3
       Max CFL number:  0.47E+00 at (   7,   1,   7)
       Max divergence:  0.41E+00 at (   8,   1,  24)
       Min divergence: -0.19E+01 at (  25,   1,  25)
       Max div. error:  0.71E-06 at (   1,   1,  18)
       Max VN number:   0.71E-01 at (  25,   1,  25)
       Mesh    4
       Max CFL number:  0.47E+00 at (   7,   1,   7)
       Max divergence:  0.41E+00 at (   8,   1,  24)
       Min divergence: -0.19E+01 at (  25,   1,  25)
       Max div. error:  0.71E-06 at (  32,   1,  24)
       Max VN number:   0.71E-01 at (  25,   1,  25)
 
       Time Step       3   February 19, 2020  19:29:53
       Step Size:    0.129E-01 s, Total Time:       0.04 s
       Pressure Iterations:      1
       Maximum Velocity Error:  0.56E-16 on Mesh   1 at (   0   1  23)
       Maximum Pressure Error:  0.71E+01 on Mesh   1 at (  24   1  24)
       ScaRC: iterations    61, residual  0.76E-08, convergence rate   0.66E+00
       ---------------------------------------------------------------
       Mesh    1
       Max CFL number:  0.49E+00 at (   8,   1,   8)
       Max divergence:  0.61E+00 at (   9,   1,  25)
       Min divergence: -0.28E+01 at (   9,   1,   9)
       Max div. error:  0.90E-06 at (   1,   1,  17)
       Max VN number:   0.69E-01 at (  25,   1,  25)
       Mesh    2
       Max CFL number:  0.49E+00 at (   8,   1,   8)
       Max divergence:  0.61E+00 at (  25,   1,   9)
       Min divergence: -0.28E+01 at (   9,   1,   9)
       Max div. error:  0.90E-06 at (  18,   1,   1)
       Max VN number:   0.69E-01 at (  25,   1,  25)
       Mesh    3
       Max CFL number:  0.49E+00 at (   8,   1,   8)
       Max divergence:  0.61E+00 at (   9,   1,  25)
       Min divergence: -0.28E+01 at (   9,   1,   9)
       Max div. error:  0.90E-06 at (   1,   1,  18)
       Max VN number:   0.69E-01 at (  25,   1,  25)
       Mesh    4
       Max CFL number:  0.49E+00 at (   8,   1,   8)
       Max divergence:  0.61E+00 at (  25,   1,   9)
       Min divergence: -0.28E+01 at (   9,   1,   9)
       Max div. error:  0.90E-06 at (  32,   1,  24)
       Max VN number:   0.69E-01 at (  25,   1,  25)
 
       Time Step       4   February 19, 2020  19:29:53
       Step Size:    0.112E-01 s, Total Time:       0.05 s
       Pressure Iterations:      1
       Maximum Velocity Error:  0.56E-16 on Mesh   1 at (   0   1  28)
       Maximum Pressure Error:  0.60E+01 on Mesh   4 at (  24   1  24)
       ScaRC: iterations    61, residual  0.83E-08, convergence rate   0.66E+00
       ---------------------------------------------------------------
       Mesh    1
       Max CFL number:  0.45E+00 at (   8,   1,   8)
       Max divergence:  0.79E+00 at (  25,   1,   9)
       Min divergence: -0.34E+01 at (   9,   1,   9)
       Max div. error:  0.10E-05 at (   1,   1,  17)
       Max VN number:   0.58E-01 at (  25,   1,  25)
       Mesh    2
       Max CFL number:  0.45E+00 at (   8,   1,   8)
       Max divergence:  0.79E+00 at (  25,   1,   9)
       Min divergence: -0.34E+01 at (   9,   1,   9)
       Max div. error:  0.10E-05 at (  24,   1,   1)
       Max VN number:   0.58E-01 at (  25,   1,  25)
       Mesh    3
       Max CFL number:  0.45E+00 at (   8,   1,   8)
       Max divergence:  0.79E+00 at (   9,   1,  25)
       Min divergence: -0.34E+01 at (   9,   1,   9)
       Max div. error:  0.10E-05 at (   1,   1,  24)
       Max VN number:   0.58E-01 at (  25,   1,  25)
       Mesh    4
       Max CFL number:  0.45E+00 at (   8,   1,   8)
       Max divergence:  0.79E+00 at (   9,   1,  25)
       Min divergence: -0.34E+01 at (   9,   1,   9)
       Max div. error:  0.10E-05 at (  24,   1,  32)
       Max VN number:   0.58E-01 at (  25,   1,  25)
 
       Time Step       5   February 19, 2020  19:29:53
       Step Size:    0.112E-01 s, Total Time:       0.06 s
       Pressure Iterations:      1
       Maximum Velocity Error:  0.56E-16 on Mesh   1 at (   0   1  21)
       Maximum Pressure Error:  0.56E+01 on Mesh   1 at (  24   1  24)
       ScaRC: iterations    61, residual  0.98E-08, convergence rate   0.66E+00
       ---------------------------------------------------------------
       Mesh    1
       Max CFL number:  0.46E+00 at (   8,   1,   8)
       Max divergence:  0.96E+00 at (   9,   1,  25)
       Min divergence: -0.39E+01 at (   9,   1,   9)
       Max div. error:  0.11E-05 at (   1,   1,  17)
       Max VN number:   0.55E-01 at (  25,   1,  25)
       Mesh    2
       Max CFL number:  0.46E+00 at (   8,   1,   8)
       Max divergence:  0.96E+00 at (  25,   1,   9)
       Min divergence: -0.39E+01 at (   9,   1,   9)
       Max div. error:  0.11E-05 at (  18,   1,   1)
       Max VN number:   0.55E-01 at (  25,   1,  25)
       Mesh    3
       Max CFL number:  0.46E+00 at (   8,   1,   8)
       Max divergence:  0.96E+00 at (   9,   1,  25)
       Min divergence: -0.39E+01 at (   9,   1,   9)
       Max div. error:  0.11E-05 at (   1,   1,  18)
       Max VN number:   0.55E-01 at (  25,   1,  25)
       Mesh    4
       Max CFL number:  0.46E+00 at (   8,   1,   8)
       Max divergence:  0.96E+00 at (   9,   1,  25)
       Min divergence: -0.39E+01 at (   9,   1,   9)
       Max div. error:  0.11E-05 at (  10,   1,   1)
       Max VN number:   0.55E-01 at (  25,   1,  25)
 
       Time Step       6   February 19, 2020  19:29:53
       Step Size:    0.112E-01 s, Total Time:       0.07 s
       Pressure Iterations:      1
       Maximum Velocity Error:  0.56E-16 on Mesh   1 at (   0   1   1)
       Maximum Pressure Error:  0.48E+01 on Mesh   4 at (  24   1  24)
       ScaRC: iterations    61, residual  0.66E-08, convergence rate   0.65E+00
       ---------------------------------------------------------------
       Mesh    1
       Max CFL number:  0.48E+00 at (   8,   1,   8)
       Max divergence:  0.11E+01 at (  10,   1,  26)
       Min divergence: -0.45E+01 at (  26,   1,  26)
       Max div. error:  0.11E-05 at (  17,   1,   1)
       Max VN number:   0.52E-01 at (  10,   1,  10)
       Mesh    2
       Max CFL number:  0.48E+00 at (   8,   1,   8)
       Max divergence:  0.11E+01 at (  26,   1,  10)
       Min divergence: -0.45E+01 at (  26,   1,  26)
       Max div. error:  0.11E-05 at (  18,   1,   1)
       Max VN number:   0.52E-01 at (  10,   1,  10)
       Mesh    3
       Max CFL number:  0.48E+00 at (   8,   1,   8)
       Max divergence:  0.11E+01 at (  10,   1,  26)
       Min divergence: -0.45E+01 at (  26,   1,  26)
       Max div. error:  0.11E-05 at (   1,   1,  18)
       Max VN number:   0.52E-01 at (  10,   1,  10)
       Mesh    4
       Max CFL number:  0.48E+00 at (   8,   1,   8)
       Max divergence:  0.11E+01 at (  10,   1,  26)
       Min divergence: -0.45E+01 at (  26,   1,  26)
       Max div. error:  0.11E-05 at (  32,   1,  32)
       Max VN number:   0.52E-01 at (  10,   1,  10)
 
       Time Step       7   February 19, 2020  19:29:54
       Step Size:    0.112E-01 s, Total Time:       0.08 s
       Pressure Iterations:      1
       Maximum Velocity Error:  0.11E-15 on Mesh   1 at (   0   1   9)
       Maximum Pressure Error:  0.44E+01 on Mesh   1 at (  25   1  25)
       ScaRC: iterations    62, residual  0.60E-08, convergence rate   0.65E+00
       ---------------------------------------------------------------
       Mesh    1
       Max CFL number:  0.49E+00 at (   8,   1,   8)
       Max divergence:  0.13E+01 at (  10,   1,  26)
       Min divergence: -0.49E+01 at (  26,   1,  26)
       Max div. error:  0.98E-06 at (  32,   1,  26)
       Max VN number:   0.49E-01 at (  10,   1,  10)
       Mesh    2
       Max CFL number:  0.49E+00 at (   8,   1,   8)
       Max divergence:  0.13E+01 at (  26,   1,  10)
       Min divergence: -0.49E+01 at (  26,   1,  26)
       Max div. error:  0.98E-06 at (  32,   1,  17)
       Max VN number:   0.49E-01 at (  10,   1,  10)
       Mesh    3
       Max CFL number:  0.49E+00 at (   8,   1,   8)
       Max divergence:  0.13E+01 at (  10,   1,  26)
       Min divergence: -0.49E+01 at (  26,   1,  26)
       Max div. error:  0.98E-06 at (  17,   1,  32)
       Max VN number:   0.49E-01 at (  10,   1,  10)
       Mesh    4
       Max CFL number:  0.49E+00 at (   8,   1,   8)
       Max divergence:  0.13E+01 at (  26,   1,  10)
       Min divergence: -0.49E+01 at (  26,   1,  26)
       Max div. error:  0.98E-06 at (  32,   1,  24)
       Max VN number:   0.49E-01 at (  10,   1,  10)
 
       Time Step       8   February 19, 2020  19:29:54
       Step Size:    0.101E-01 s, Total Time:       0.09 s
       Pressure Iterations:      1
       Maximum Velocity Error:  0.11E-15 on Mesh   1 at (  33   1   7)
       Maximum Pressure Error:  0.38E+01 on Mesh   1 at (  25   1  25)
       ScaRC: iterations    62, residual  0.58E-08, convergence rate   0.65E+00
       ---------------------------------------------------------------
       Mesh    1
       Max CFL number:  0.45E+00 at (   8,   1,   8)
       Max divergence:  0.15E+01 at (  26,   1,  10)
       Min divergence: -0.52E+01 at (  10,   1,  10)
       Max div. error:  0.89E-06 at (   1,   1,  28)
       Max VN number:   0.42E-01 at (  26,   1,  26)
       Mesh    2
       Max CFL number:  0.45E+00 at (   8,   1,   8)
       Max divergence:  0.15E+01 at (  26,   1,  10)
       Min divergence: -0.52E+01 at (  10,   1,  10)
       Max div. error:  0.89E-06 at (  32,   1,  17)
       Max VN number:   0.42E-01 at (  26,   1,  26)
       Mesh    3
       Max CFL number:  0.45E+00 at (   8,   1,   8)
       Max divergence:  0.15E+01 at (  10,   1,  26)
       Min divergence: -0.52E+01 at (  10,   1,  10)
       Max div. error:  0.89E-06 at (  17,   1,  32)
       Max VN number:   0.42E-01 at (  26,   1,  26)
       Mesh    4
       Max CFL number:  0.45E+00 at (   8,   1,   8)
       Max divergence:  0.15E+01 at (  26,   1,  10)
       Min divergence: -0.52E+01 at (  10,   1,  10)
       Max div. error:  0.89E-06 at (  18,   1,  32)
       Max VN number:   0.42E-01 at (  26,   1,  26)
 
       Time Step       9   February 19, 2020  19:29:54
       Step Size:    0.101E-01 s, Total Time:       0.10 s
       Pressure Iterations:      1
       Maximum Velocity Error:  0.11E-15 on Mesh   1 at (   0   1   8)
       Maximum Pressure Error:  0.37E+01 on Mesh   1 at (  25   1  25)
       ScaRC: iterations    62, residual  0.76E-08, convergence rate   0.65E+00
       ---------------------------------------------------------------
       Mesh    1
       Max CFL number:  0.46E+00 at (   8,   1,   8)
       Max divergence:  0.17E+01 at (  10,   1,  26)
       Min divergence: -0.53E+01 at (  10,   1,  10)
       Max div. error:  0.78E-06 at (   1,   1,  28)
       Max VN number:   0.40E-01 at (  26,   1,  26)
       Mesh    2
       Max CFL number:  0.46E+00 at (   8,   1,   8)
       Max divergence:  0.17E+01 at (  10,   1,  26)
       Min divergence: -0.53E+01 at (  10,   1,  10)
       Max div. error:  0.78E-06 at (  32,   1,  17)
       Max VN number:   0.40E-01 at (  26,   1,  26)
       Mesh    3
       Max CFL number:  0.46E+00 at (   8,   1,   8)
       Max divergence:  0.17E+01 at (  10,   1,  26)
       Min divergence: -0.53E+01 at (  10,   1,  10)
       Max div. error:  0.78E-06 at (  17,   1,  32)
       Max VN number:   0.40E-01 at (  26,   1,  26)
       Mesh    4
       Max CFL number:  0.46E+00 at (   8,   1,   8)
       Max divergence:  0.17E+01 at (  26,   1,  10)
       Min divergence: -0.53E+01 at (  10,   1,  10)
       Max div. error:  0.78E-06 at (  18,   1,  32)
       Max VN number:   0.40E-01 at (  26,   1,  26)
 
       Time Step      10   February 19, 2020  19:29:54
       Step Size:    0.101E-01 s, Total Time:       0.11 s
       Pressure Iterations:      1
       Maximum Velocity Error:  0.11E-15 on Mesh   1 at (   0   1   8)
       Maximum Pressure Error:  0.35E+01 on Mesh   1 at (  25   1  25)
       ScaRC: iterations    63, residual  0.38E-08, convergence rate   0.65E+00
       ---------------------------------------------------------------
       Mesh    1
       Max CFL number:  0.46E+00 at (   8,   1,   8)
       Max divergence:  0.18E+01 at (  26,   1,  10)
       Min divergence: -0.54E+01 at (  10,   1,  10)
       Max div. error:  0.65E-06 at (   1,   1,  15)
       Max VN number:   0.38E-01 at (  26,   1,  26)
       Mesh    2
       Max CFL number:  0.46E+00 at (   8,   1,   8)
       Max divergence:  0.18E+01 at (  10,   1,  26)
       Min divergence: -0.54E+01 at (  10,   1,  10)
       Max div. error:  0.65E-06 at (  23,   1,   1)
       Max VN number:   0.38E-01 at (  26,   1,  26)
       Mesh    3
       Max CFL number:  0.46E+00 at (   8,   1,   8)
       Max divergence:  0.18E+01 at (  26,   1,  10)
       Min divergence: -0.54E+01 at (  10,   1,  10)
       Max div. error:  0.65E-06 at (   1,   1,  23)
       Max VN number:   0.38E-01 at (  26,   1,  26)
       Mesh    4
       Max CFL number:  0.46E+00 at (   8,   1,   8)
       Max divergence:  0.18E+01 at (  26,   1,  10)
       Min divergence: -0.54E+01 at (  10,   1,  10)
       Max div. error:  0.65E-06 at (   1,   1,   1)
       Max VN number:   0.38E-01 at (  26,   1,  26)
 
       Time Step      20   February 19, 2020  19:29:54
       Step Size:    0.101E-01 s, Total Time:       0.21 s
       Pressure Iterations:      1
       Maximum Velocity Error:  0.11E-15 on Mesh   1 at (   0   1   7)
       Maximum Pressure Error:  0.99E+00 on Mesh   3 at (  30   1  26)
       ScaRC: iterations    64, residual  0.87E-08, convergence rate   0.65E+00
       ---------------------------------------------------------------
       Mesh    1
       Max CFL number:  0.47E+00 at (  25,   1,  25)
       Max divergence:  0.36E+01 at (  12,   1,  28)
       Min divergence: -0.48E+01 at (  28,   1,  28)
       Max div. error:  0.38E-06 at (  24,   1,   1)
       Max VN number:   0.22E-01 at (  26,   1,  26)
       Mesh    2
       Max CFL number:  0.47E+00 at (  25,   1,  25)
       Max divergence:  0.36E+01 at (  12,   1,  28)
       Min divergence: -0.48E+01 at (  28,   1,  28)
       Max div. error:  0.38E-06 at (  20,   1,   1)
       Max VN number:   0.22E-01 at (  26,   1,  26)
       Mesh    3
       Max CFL number:  0.47E+00 at (  25,   1,  25)
       Max divergence:  0.36E+01 at (  12,   1,  28)
       Min divergence: -0.48E+01 at (  28,   1,  28)
       Max div. error:  0.38E-06 at (   1,   1,  20)
       Max VN number:   0.22E-01 at (  26,   1,  26)
       Mesh    4
       Max CFL number:  0.47E+00 at (  25,   1,  25)
       Max divergence:  0.36E+01 at (  28,   1,  12)
       Min divergence: -0.48E+01 at (  28,   1,  28)
       Max div. error:  0.38E-06 at (  18,   1,  32)
       Max VN number:   0.22E-01 at (  26,   1,  26)
 
       Time Step      30   February 19, 2020  19:29:55
       Step Size:    0.101E-01 s, Total Time:       0.31 s
       Pressure Iterations:      1
       Maximum Velocity Error:  0.11E-15 on Mesh   1 at (   0   1  13)
       Maximum Pressure Error:  0.11E+01 on Mesh   3 at (  28   1  13)
       ScaRC: iterations    63, residual  0.52E-08, convergence rate   0.65E+00
       ---------------------------------------------------------------
       Mesh    1
       Max CFL number:  0.48E+00 at (  32,   1,  16)
       Max divergence:  0.52E+01 at (  14,   1,  30)
       Min divergence: -0.30E+01 at (  30,   1,  30)
       Max div. error:  0.42E-06 at (  15,   1,   1)
       Max VN number:   0.26E-01 at (  13,   1,  29)
       Mesh    2
       Max CFL number:  0.48E+00 at (  16,   1,  32)
       Max divergence:  0.52E+01 at (  30,   1,  14)
       Min divergence: -0.30E+01 at (  30,   1,  30)
       Max div. error:  0.42E-06 at (  23,   1,   1)
       Max VN number:   0.26E-01 at (  13,   1,  29)
       Mesh    3
       Max CFL number:  0.48E+00 at (  32,   1,  16)
       Max divergence:  0.52E+01 at (  14,   1,  30)
       Min divergence: -0.30E+01 at (  30,   1,  30)
       Max div. error:  0.42E-06 at (   1,   1,  23)
       Max VN number:   0.26E-01 at (  29,   1,  13)
       Mesh    4
       Max CFL number:  0.48E+00 at (  32,   1,  16)
       Max divergence:  0.52E+01 at (  30,   1,  14)
       Min divergence: -0.30E+01 at (  30,   1,  30)
       Max div. error:  0.42E-06 at (  23,   1,  32)
       Max VN number:   0.26E-01 at (  29,   1,  13)
 
       Time Step      40   February 19, 2020  19:29:55
       Step Size:    0.101E-01 s, Total Time:       0.42 s
       Pressure Iterations:      1
       Maximum Velocity Error:  0.56E-16 on Mesh   1 at (   0   1  29)
       Maximum Pressure Error:  0.33E+01 on Mesh   4 at (  16   1  32)
       ScaRC: iterations    63, residual  0.57E-08, convergence rate   0.65E+00
       ---------------------------------------------------------------
       Mesh    1
       Max CFL number:  0.44E+00 at (   1,   1,  17)
       Max divergence:  0.50E+01 at (  15,   1,  31)
       Min divergence: -0.13E+01 at (  15,   1,  15)
       Max div. error:  0.20E-06 at (   1,   1,  10)
       Max VN number:   0.45E-01 at (  15,   1,  31)
       Mesh    2
       Max CFL number:  0.44E+00 at (   1,   1,  17)
       Max divergence:  0.50E+01 at (  15,   1,  31)
       Min divergence: -0.13E+01 at (  15,   1,  15)
       Max div. error:  0.20E-06 at (  18,   1,   1)
       Max VN number:   0.45E-01 at (  31,   1,  15)
       Mesh    3
       Max CFL number:  0.44E+00 at (  17,   1,   1)
       Max divergence:  0.50E+01 at (  31,   1,  15)
       Min divergence: -0.13E+01 at (  15,   1,  15)
       Max div. error:  0.20E-06 at (   1,   1,  18)
       Max VN number:   0.45E-01 at (  15,   1,  31)
       Mesh    4
       Max CFL number:  0.44E+00 at (   1,   1,  17)
       Max divergence:  0.50E+01 at (  31,   1,  15)
       Min divergence: -0.13E+01 at (  15,   1,  15)
       Max div. error:  0.20E-06 at (  18,   1,  32)
       Max VN number:   0.45E-01 at (  31,   1,  15)
 
       Time Step      50   February 19, 2020  19:29:56
       Step Size:    0.134E-01 s, Total Time:       0.53 s
       Pressure Iterations:      1
       Maximum Velocity Error:  0.56E-16 on Mesh   1 at (   0   1  29)
       Maximum Pressure Error:  0.60E+01 on Mesh   3 at (  32   1  16)
       ScaRC: iterations    64, residual  0.63E-08, convergence rate   0.65E+00
       ---------------------------------------------------------------
       Mesh    1
       Max CFL number:  0.49E+00 at (  15,   1,  31)
       Max divergence:  0.46E+00 at (  16,   1,  16)
       Min divergence: -0.21E+01 at (  17,   1,   1)
       Max div. error:  0.69E-07 at (   1,   1,   1)
       Max VN number:   0.72E-01 at (  17,   1,   1)
       Mesh    2
       Max CFL number:  0.49E+00 at (  15,   1,  31)
       Max divergence:  0.46E+00 at (  16,   1,  16)
       Min divergence: -0.21E+01 at (  17,   1,   1)
       Max div. error:  0.69E-07 at (  32,   1,  12)
       Max VN number:   0.72E-01 at (   1,   1,  17)
       Mesh    3
       Max CFL number:  0.49E+00 at (  31,   1,  15)
       Max divergence:  0.46E+00 at (  16,   1,  16)
       Min divergence: -0.21E+01 at (   1,   1,  17)
       Max div. error:  0.69E-07 at (  12,   1,  32)
       Max VN number:   0.72E-01 at (  17,   1,   1)
       Mesh    4
       Max CFL number:  0.49E+00 at (  31,   1,  15)
       Max divergence:  0.46E+00 at (  16,   1,  16)
       Min divergence: -0.21E+01 at (  17,   1,   1)
       Max div. error:  0.69E-07 at (  32,   1,  23)
       Max VN number:   0.72E-01 at (   1,   1,  17)
 
       Time Step      60   February 19, 2020  19:29:56
       Step Size:    0.102E-01 s, Total Time:       0.64 s
       Pressure Iterations:      1
       Maximum Velocity Error:  0.11E-15 on Mesh   1 at (   0   1  16)
       Maximum Pressure Error:  0.29E+01 on Mesh   1 at (  17   1   1)
       ScaRC: iterations    63, residual  0.81E-08, convergence rate   0.64E+00
       ---------------------------------------------------------------
       Mesh    1
       Max CFL number:  0.48E+00 at (   1,   1,  16)
       Max divergence:  0.22E+01 at (   3,   1,   3)
       Min divergence: -0.55E+01 at (  19,   1,   3)
       Max div. error:  0.32E-06 at (   1,   1,  24)
       Max VN number:   0.33E-01 at (  20,   1,   3)
       Mesh    2
       Max CFL number:  0.48E+00 at (   1,   1,  16)
       Max divergence:  0.22E+01 at (   3,   1,   3)
       Min divergence: -0.55E+01 at (  19,   1,   3)
       Max div. error:  0.32E-06 at (  23,   1,   1)
       Max VN number:   0.33E-01 at (  20,   1,   3)
       Mesh    3
       Max CFL number:  0.48E+00 at (  16,   1,   1)
       Max divergence:  0.22E+01 at (   3,   1,   3)
       Min divergence: -0.55E+01 at (   3,   1,  19)
       Max div. error:  0.32E-06 at (   1,   1,  23)
       Max VN number:   0.33E-01 at (   3,   1,  20)
       Mesh    4
       Max CFL number:  0.48E+00 at (   1,   1,  16)
       Max divergence:  0.22E+01 at (   3,   1,   3)
       Min divergence: -0.55E+01 at (   3,   1,  19)
       Max div. error:  0.32E-06 at (   1,   1,   1)
       Max VN number:   0.33E-01 at (   3,   1,  20)
 
       Time Step      70   February 19, 2020  19:29:57
       Step Size:    0.102E-01 s, Total Time:       0.74 s
       Pressure Iterations:      1
       Maximum Velocity Error:  0.11E-15 on Mesh   1 at (   0   1  19)
       Maximum Pressure Error:  0.91E+00 on Mesh   4 at (  20   1   4)
       ScaRC: iterations    65, residual  0.27E-08, convergence rate   0.64E+00
       ---------------------------------------------------------------
       Mesh    1
       Max CFL number:  0.47E+00 at (  17,   1,   1)
       Max divergence:  0.40E+01 at (   4,   1,   4)
       Min divergence: -0.44E+01 at (  20,   1,   4)
       Max div. error:  0.43E-06 at (  13,   1,   1)
       Max VN number:   0.21E-01 at (  22,   1,   6)
       Mesh    2
       Max CFL number:  0.47E+00 at (   1,   1,  17)
       Max divergence:  0.40E+01 at (   4,   1,   4)
       Min divergence: -0.44E+01 at (  20,   1,   4)
       Max div. error:  0.43E-06 at (  22,   1,   1)
       Max VN number:   0.21E-01 at (  22,   1,   6)
       Mesh    3
       Max CFL number:  0.47E+00 at (  17,   1,   1)
       Max divergence:  0.40E+01 at (   4,   1,   4)
       Min divergence: -0.44E+01 at (   4,   1,  20)
       Max div. error:  0.43E-06 at (   1,   1,  22)
       Max VN number:   0.21E-01 at (   6,   1,  22)
       Mesh    4
       Max CFL number:  0.47E+00 at (   1,   1,  17)
       Max divergence:  0.40E+01 at (   4,   1,   4)
       Min divergence: -0.44E+01 at (  20,   1,   4)
       Max div. error:  0.43E-06 at (  24,   1,  32)
       Max VN number:   0.21E-01 at (   6,   1,  22)
 
       Time Step      80   February 19, 2020  19:29:57
       Step Size:    0.102E-01 s, Total Time:       0.84 s
       Pressure Iterations:      1
       Maximum Velocity Error:  0.11E-15 on Mesh   1 at (  21   1   0)
       Maximum Pressure Error:  0.19E+01 on Mesh   3 at (  21   1  21)
       ScaRC: iterations    59, residual  0.83E-08, convergence rate   0.66E+00
       ---------------------------------------------------------------
       Mesh    1
       Max CFL number:  0.48E+00 at (   9,   1,   8)
       Max divergence:  0.55E+01 at (   6,   1,   6)
       Min divergence: -0.26E+01 at (  22,   1,   6)
       Max div. error:  0.42E-07 at (   1,   1,  26)
       Max VN number:   0.31E-01 at (   6,   1,   6)
       Mesh    2
       Max CFL number:  0.48E+00 at (   9,   1,   8)
       Max divergence:  0.55E+01 at (   6,   1,   6)
       Min divergence: -0.26E+01 at (  22,   1,   6)
       Max div. error:  0.42E-07 at (  23,   1,   1)
       Max VN number:   0.31E-01 at (   6,   1,   6)
       Mesh    3
       Max CFL number:  0.48E+00 at (   8,   1,   9)
       Max divergence:  0.55E+01 at (   6,   1,   6)
       Min divergence: -0.26E+01 at (   6,   1,  22)
       Max div. error:  0.42E-07 at (   1,   1,  23)
       Max VN number:   0.31E-01 at (   6,   1,   6)
       Mesh    4
       Max CFL number:  0.48E+00 at (   9,   1,   8)
       Max divergence:  0.55E+01 at (   6,   1,   6)
       Min divergence: -0.26E+01 at (  22,   1,   6)
       Max div. error:  0.42E-07 at (   1,   1,  32)
       Max VN number:   0.31E-01 at (   6,   1,   6)
 
       Time Step      90   February 19, 2020  19:29:58
       Step Size:    0.102E-01 s, Total Time:       0.94 s
       Pressure Iterations:      1
       Maximum Velocity Error:  0.56E-16 on Mesh   1 at (   0   1   2)
       Maximum Pressure Error:  0.40E+01 on Mesh   4 at (   9   1   9)
       ScaRC: iterations    59, residual  0.79E-08, convergence rate   0.66E+00
       ---------------------------------------------------------------
       Mesh    1
       Max CFL number:  0.42E+00 at (   9,   1,   9)
       Max divergence:  0.39E+01 at (   8,   1,   8)
       Min divergence: -0.91E+00 at (   8,   1,  24)
       Max div. error:  0.20E-06 at (  23,   1,   1)
       Max VN number:   0.51E-01 at (   7,   1,   7)
       Mesh    2
       Max CFL number:  0.42E+00 at (   9,   1,   9)
       Max divergence:  0.39E+01 at (   8,   1,   8)
       Min divergence: -0.91E+00 at (  24,   1,   8)
       Max div. error:  0.20E-06 at (  24,   1,   1)
       Max VN number:   0.51E-01 at (   7,   1,   7)
       Mesh    3
       Max CFL number:  0.42E+00 at (   9,   1,   9)
       Max divergence:  0.39E+01 at (   8,   1,   8)
       Min divergence: -0.91E+00 at (   8,   1,  24)
       Max div. error:  0.20E-06 at (   1,   1,  24)
       Max VN number:   0.51E-01 at (   7,   1,   7)
       Mesh    4
       Max CFL number:  0.42E+00 at (   9,   1,   9)
       Max divergence:  0.39E+01 at (   8,   1,   8)
       Min divergence: -0.91E+00 at (   8,   1,  24)
       Max div. error:  0.20E-06 at (  21,   1,  32)
       Max VN number:   0.51E-01 at (   7,   1,   7)
 
       Time Step      96   February 19, 2020  19:29:58
       Step Size:    0.212E-02 s, Total Time:       1.00 s
       Pressure Iterations:      1
       Maximum Velocity Error:  0.56E-16 on Mesh   1 at (  33   1  12)
       Maximum Pressure Error:  0.34E+00 on Mesh   4 at (  21   1  23)
       ScaRC: iterations    59, residual  0.95E-08, convergence rate   0.66E+00
       ---------------------------------------------------------------
       Mesh    1
       Max CFL number:  0.69E-01 at (  23,   1,   7)
       Max divergence:  0.60E-01 at (  25,   1,  25)
       Min divergence: -0.47E-01 at (   7,   1,   7)
       Max div. error:  0.26E-07 at (   1,   1,   9)
       Max VN number:   0.12E-01 at (   8,   1,   8)
       Mesh    2
       Max CFL number:  0.69E-01 at (   7,   1,  23)
       Max divergence:  0.60E-01 at (  25,   1,  25)
       Min divergence: -0.47E-01 at (   7,   1,   7)
       Max div. error:  0.26E-07 at (  23,   1,   1)
       Max VN number:   0.12E-01 at (   8,   1,   8)
       Mesh    3
       Max CFL number:  0.69E-01 at (  23,   1,   7)
       Max divergence:  0.60E-01 at (  25,   1,  25)
       Min divergence: -0.47E-01 at (   7,   1,   7)
       Max div. error:  0.26E-07 at (   1,   1,  23)
       Max VN number:   0.12E-01 at (   8,   1,   8)
       Mesh    4
       Max CFL number:  0.69E-01 at (   7,   1,  23)
       Max divergence:  0.60E-01 at (  25,   1,  25)
       Min divergence: -0.47E-01 at (   7,   1,   7)
       Max div. error:  0.26E-07 at (  32,   1,   7)
       Max VN number:   0.12E-01 at (   8,   1,   8)
 


 Time Stepping Wall Clock Time (s):        4.759
 Total Elapsed Wall Clock Time (s):        4.900

STOP: FDS completed successfully (CHID: shunn3_4mesh_64_scarc)
