
 Fire Dynamics Simulator

 Current Date     : February 19, 2020  19:29:44
 Revision         : -master
 Revision Date    : Wed Feb 19 18:38:00 2020 +0100
 Compiler         : Intel ifort 18.0.1
 Compilation Date : Feb 19, 2020 18:48:59

 MPI Enabled;    Number of MPI Processes:      16
 OpenMP Enabled; Number of OpenMP Threads:      1

 MPI version: 3.1
 MPI library version: Intel(R) MPI Library 2018 Update 1 for Linux* OS


 Job TITLE        : Shunn et al. (2012) JCP, Problem 3, FLUX_LIMITER=CHARM
 Job ID string    : shunn3_16mesh_32_scarc


 Grid Dimensions, Mesh     1

   Cells in the X Direction             8
   Cells in the Y Direction             1
   Cells in the Z Direction             8
   Number of Grid Cells                64


 Physical Dimensions, Mesh     1

   Length (m)                       0.500
   Width  (m)                       0.100
   Height (m)                       0.500
   Initial Time Step (s)            0.035

 Grid Dimensions, Mesh     2

   Cells in the X Direction             8
   Cells in the Y Direction             1
   Cells in the Z Direction             8
   Number of Grid Cells                64


 Physical Dimensions, Mesh     2

   Length (m)                       0.500
   Width  (m)                       0.100
   Height (m)                       0.500
   Initial Time Step (s)            0.035

 Grid Dimensions, Mesh     3

   Cells in the X Direction             8
   Cells in the Y Direction             1
   Cells in the Z Direction             8
   Number of Grid Cells                64


 Physical Dimensions, Mesh     3

   Length (m)                       0.500
   Width  (m)                       0.100
   Height (m)                       0.500
   Initial Time Step (s)            0.035

 Grid Dimensions, Mesh     4

   Cells in the X Direction             8
   Cells in the Y Direction             1
   Cells in the Z Direction             8
   Number of Grid Cells                64


 Physical Dimensions, Mesh     4

   Length (m)                       0.500
   Width  (m)                       0.100
   Height (m)                       0.500
   Initial Time Step (s)            0.035

 Grid Dimensions, Mesh     5

   Cells in the X Direction             8
   Cells in the Y Direction             1
   Cells in the Z Direction             8
   Number of Grid Cells                64


 Physical Dimensions, Mesh     5

   Length (m)                       0.500
   Width  (m)                       0.100
   Height (m)                       0.500
   Initial Time Step (s)            0.035

 Grid Dimensions, Mesh     6

   Cells in the X Direction             8
   Cells in the Y Direction             1
   Cells in the Z Direction             8
   Number of Grid Cells                64


 Physical Dimensions, Mesh     6

   Length (m)                       0.500
   Width  (m)                       0.100
   Height (m)                       0.500
   Initial Time Step (s)            0.035

 Grid Dimensions, Mesh     7

   Cells in the X Direction             8
   Cells in the Y Direction             1
   Cells in the Z Direction             8
   Number of Grid Cells                64


 Physical Dimensions, Mesh     7

   Length (m)                       0.500
   Width  (m)                       0.100
   Height (m)                       0.500
   Initial Time Step (s)            0.035

 Grid Dimensions, Mesh     8

   Cells in the X Direction             8
   Cells in the Y Direction             1
   Cells in the Z Direction             8
   Number of Grid Cells                64


 Physical Dimensions, Mesh     8

   Length (m)                       0.500
   Width  (m)                       0.100
   Height (m)                       0.500
   Initial Time Step (s)            0.035

 Grid Dimensions, Mesh     9

   Cells in the X Direction             8
   Cells in the Y Direction             1
   Cells in the Z Direction             8
   Number of Grid Cells                64


 Physical Dimensions, Mesh     9

   Length (m)                       0.500
   Width  (m)                       0.100
   Height (m)                       0.500
   Initial Time Step (s)            0.035

 Grid Dimensions, Mesh    10

   Cells in the X Direction             8
   Cells in the Y Direction             1
   Cells in the Z Direction             8
   Number of Grid Cells                64


 Physical Dimensions, Mesh    10

   Length (m)                       0.500
   Width  (m)                       0.100
   Height (m)                       0.500
   Initial Time Step (s)            0.035

 Grid Dimensions, Mesh    11

   Cells in the X Direction             8
   Cells in the Y Direction             1
   Cells in the Z Direction             8
   Number of Grid Cells                64


 Physical Dimensions, Mesh    11

   Length (m)                       0.500
   Width  (m)                       0.100
   Height (m)                       0.500
   Initial Time Step (s)            0.035

 Grid Dimensions, Mesh    12

   Cells in the X Direction             8
   Cells in the Y Direction             1
   Cells in the Z Direction             8
   Number of Grid Cells                64


 Physical Dimensions, Mesh    12

   Length (m)                       0.500
   Width  (m)                       0.100
   Height (m)                       0.500
   Initial Time Step (s)            0.035

 Grid Dimensions, Mesh    13

   Cells in the X Direction             8
   Cells in the Y Direction             1
   Cells in the Z Direction             8
   Number of Grid Cells                64


 Physical Dimensions, Mesh    13

   Length (m)                       0.500
   Width  (m)                       0.100
   Height (m)                       0.500
   Initial Time Step (s)            0.035

 Grid Dimensions, Mesh    14

   Cells in the X Direction             8
   Cells in the Y Direction             1
   Cells in the Z Direction             8
   Number of Grid Cells                64


 Physical Dimensions, Mesh    14

   Length (m)                       0.500
   Width  (m)                       0.100
   Height (m)                       0.500
   Initial Time Step (s)            0.035

 Grid Dimensions, Mesh    15

   Cells in the X Direction             8
   Cells in the Y Direction             1
   Cells in the Z Direction             8
   Number of Grid Cells                64


 Physical Dimensions, Mesh    15

   Length (m)                       0.500
   Width  (m)                       0.100
   Height (m)                       0.500
   Initial Time Step (s)            0.035

 Grid Dimensions, Mesh    16

   Cells in the X Direction             8
   Cells in the Y Direction             1
   Cells in the Z Direction             8
   Number of Grid Cells                64


 Physical Dimensions, Mesh    16

   Length (m)                       0.500
   Width  (m)                       0.100
   Height (m)                       0.500
   Initial Time Step (s)            0.035

Total Number of Grid Cells          1024


 Miscellaneous Parameters

   Simulation Start Time (s)          0.0
   Simulation End Time (s)            1.0
   Ambient Temperature (C):         20.00


 Mass Fraction Transformation Matrix to Convert Species Mixtures (Columns) to Primitive Species (Rows)

                         BACKGROU  SCALAR  
   BACKGROUND            1.000000  0.000000
   SCALAR                0.000000  1.000000


 Primitive Species Information

   BACKGROUND
   Gas Species
   Molecular Weight (g/mol)            50.00000
   Ambient Density (kg/m^3)            5.000
   Enthalpy of Formation (J/kg)        2.98E+05

   SCALAR
   Gas Species
   Molecular Weight (g/mol)            10.00000
   Ambient Density (kg/m^3)            1.000
   Enthalpy of Formation (J/kg)        2.98E+05


 Tracked (Lumped) Species Information

   BACKGROUND
   Molecular Weight (g/mol)            50.00000
   Ambient Density (kg/m^3)            5.000
   Initial Mass Fraction               1.000
   Enthalpy of Formation (J/kg)      2.98E+05

   Sub Species                    Mass Fraction     Mole Fraction
   BACKGROUND                     1.000000E+00      1.000000E+00
 
     Viscosity (kg/m/s) Ambient,  293 K:  1.00E-03
                                  500 K:  1.00E-03
                                 1000 K:  1.00E-03
                                 1500 K:  1.00E-03
   Therm. Cond. (W/m/K) Ambient,  293 K:  1.41E+00
                                  500 K:  1.41E+00
                                 1000 K:  1.41E+00
                                 1500 K:  1.41E+00
        Enthalpy (J/kg) Ambient,  293 K:  2.93E+05
                                  500 K:  5.00E+05
                                 1000 K:  1.00E+06
                                 1500 K:  1.50E+06
    Spec. Heat (J/kg/K) Ambient,  293 K:  1.00E+03
                                  500 K:  1.00E+03
                                 1000 K:  1.00E+03
                                 1500 K:  1.00E+03
   Diff. Coeff. (m^2/s) Ambient,  293 K:  1.49E-05
                                  500 K:  3.69E-05
                                 1000 K:  1.17E-04
                                 1500 K:  2.30E-04

   SCALAR
   Molecular Weight (g/mol)            10.00000
   Ambient Density (kg/m^3)            1.000
   Initial Mass Fraction               0.000
   Enthalpy of Formation (J/kg)      2.98E+05

   Sub Species                    Mass Fraction     Mole Fraction
   SCALAR                         1.000000E+00      1.000000E+00
 
     Viscosity (kg/m/s) Ambient,  293 K:  1.00E-03
                                  500 K:  1.00E-03
                                 1000 K:  1.00E-03
                                 1500 K:  1.00E-03
   Therm. Cond. (W/m/K) Ambient,  293 K:  1.41E+00
                                  500 K:  1.41E+00
                                 1000 K:  1.41E+00
                                 1500 K:  1.41E+00
        Enthalpy (J/kg) Ambient,  293 K:  2.93E+05
                                  500 K:  5.00E+05
                                 1000 K:  1.00E+06
                                 1500 K:  1.50E+06
    Spec. Heat (J/kg/K) Ambient,  293 K:  1.00E+03
                                  500 K:  1.00E+03
                                 1000 K:  1.00E+03
                                 1500 K:  1.00E+03
   Diff. Coeff. (m^2/s) Ambient,  293 K:  2.57E-05
                                  500 K:  6.40E-05
                                 1000 K:  2.03E-04
                                 1500 K:  3.98E-04


 Material Information


 Surface Conditions

   0 INERT (DEFAULT)

   1 OPEN
     Passive Vent to Atmosphere

   2 MIRROR
     Symmetry Plane

   3 INTERPOLATED

   4 PERIODIC

   5 HVAC

   6 MASSLESS TRACER

   7 DROPLET

   8 EVACUATION_OUTFLOW
     Normal Velocity (m/s)         0.000

   9 MASSLESS TARGET

  10 PERIODIC WIND

  11 SLICE


 Device Coordinates

     1 Coords:     -0.000625      0.000000     -0.000625, Make: null, ID: scarc-iter, Quantity: SCARC ITERATIONS
     2 Coords:     -0.000625      0.000000     -0.000625, Make: null, ID: scarc-rate, Quantity: SCARC CONVERGENCE RATE
     3 Coords:     -0.000625      0.000000     -0.000625, Make: null, ID: scarc-res, Quantity: SCARC RESIDUAL


 Slice File Information, Mesh     1

   Sampling Interval (s)             0.001

   1 Nodes:   0   8   1   1   0   8, Quantity: VELOCITY
   2 Nodes:   0   8   1   1   0   8, Quantity: U-VELOCITY
   3 Nodes:   0   8   1   1   0   8, Quantity: W-VELOCITY
   4 Nodes:   0   8   1   1   0   8, Quantity: DENSITY
   5 Nodes:   0   8   1   1   0   8, Quantity: DIVERGENCE
   6 Nodes:   0   8   1   1   0   8, Quantity: SCALAR MASS FRACTION
   7 Nodes:   0   8   1   1   0   8, Quantity: TEMPERATURE
   8 Nodes:   0   8   1   1   0   8, Quantity: H
   9 Nodes:   0   8   1   1   0   8, Quantity: PRESSURE
  10 Nodes:   0   8   1   1   0   8, Quantity: VISCOSITY


 SCARC Information

   Discretization        STRUCTURED
   Global solver             KRYLOV
   Storage technique        COMPACT
   Preconditioner           PARDISO
   Max iterations              1000
   Stopping accuracy       0.10E-07
 
 

 Run Time Diagnostics

       Time Step       1   February 19, 2020  19:29:44
       Step Size:    0.223E-01 s, Total Time:       0.02 s
       Pressure Iterations:      1
       Maximum Velocity Error:  0.56E-16 on Mesh   3 at (   1   1   9)
       Maximum Pressure Error:  0.96E+01 on Mesh   3 at (   4   1   4)
       ScaRC: iterations    52, residual  0.59E-08, convergence rate   0.62E+00
       ---------------------------------------------------------------
       Mesh    1
       Max CFL number:  0.42E+00 at (   4,   1,   4)
       Max divergence:  0.14E+00 at (   1,   1,   5)
       Min divergence: -0.15E+01 at (   5,   1,   5)
       Max div. error:  0.56E-05 at (   1,   1,   6)
       Max VN number:   0.30E-01 at (   5,   1,   5)
       Mesh    2
       Max CFL number:  0.38E+00 at (   8,   1,   5)
       Max divergence:  0.35E+00 at (   5,   1,   5)
       Min divergence:  0.15E-01 at (   1,   1,   1)
       Max div. error:  0.56E-05 at (   5,   1,   1)
       Max VN number:   0.11E-01 at (   1,   1,   1)
       Mesh    3
       Max CFL number:  0.42E+00 at (   4,   1,   4)
       Max divergence:  0.14E+00 at (   5,   1,   1)
       Min divergence: -0.15E+01 at (   5,   1,   5)
       Max div. error:  0.56E-05 at (   6,   1,   1)
       Max VN number:   0.30E-01 at (   5,   1,   5)
       Mesh    4
       Max CFL number:  0.38E+00 at (   5,   1,   8)
       Max divergence:  0.35E+00 at (   5,   1,   5)
       Min divergence:  0.15E-01 at (   1,   1,   1)
       Max div. error:  0.56E-05 at (   8,   1,   4)
       Max VN number:   0.11E-01 at (   1,   1,   1)
       Mesh    5
       Max CFL number:  0.38E+00 at (   5,   1,   8)
       Max divergence:  0.35E+00 at (   5,   1,   5)
       Min divergence:  0.15E-01 at (   1,   1,   1)
       Max div. error:  0.56E-05 at (   1,   1,   5)
       Max VN number:   0.11E-01 at (   1,   1,   1)
       Mesh    6
       Max CFL number:  0.42E+00 at (   4,   1,   4)
       Max divergence:  0.14E+00 at (   5,   1,   1)
       Min divergence: -0.15E+01 at (   5,   1,   5)
       Max div. error:  0.56E-05 at (   8,   1,   6)
       Max VN number:   0.30E-01 at (   5,   1,   5)
       Mesh    7
       Max CFL number:  0.38E+00 at (   8,   1,   5)
       Max divergence:  0.35E+00 at (   5,   1,   5)
       Min divergence:  0.15E-01 at (   1,   1,   1)
       Max div. error:  0.56E-05 at (   1,   1,   8)
       Max VN number:   0.11E-01 at (   1,   1,   1)
       Mesh    8
       Max CFL number:  0.42E+00 at (   4,   1,   4)
       Max divergence:  0.14E+00 at (   5,   1,   1)
       Min divergence: -0.15E+01 at (   5,   1,   5)
       Max div. error:  0.56E-05 at (   8,   1,   2)
       Max VN number:   0.30E-01 at (   5,   1,   5)
       Mesh    9
       Max CFL number:  0.42E+00 at (   4,   1,   4)
       Max divergence:  0.14E+00 at (   1,   1,   5)
       Min divergence: -0.15E+01 at (   5,   1,   5)
       Max div. error:  0.56E-05 at (   1,   1,   6)
       Max VN number:   0.30E-01 at (   5,   1,   5)
       Mesh   10
       Max CFL number:  0.38E+00 at (   5,   1,   8)
       Max divergence:  0.35E+00 at (   5,   1,   5)
       Min divergence:  0.15E-01 at (   1,   1,   1)
       Max div. error:  0.56E-05 at (   8,   1,   1)
       Max VN number:   0.11E-01 at (   1,   1,   1)
       Mesh   11
       Max CFL number:  0.42E+00 at (   4,   1,   4)
       Max divergence:  0.14E+00 at (   5,   1,   1)
       Min divergence: -0.15E+01 at (   5,   1,   5)
       Max div. error:  0.56E-05 at (   1,   1,   1)
       Max VN number:   0.30E-01 at (   5,   1,   5)
       Mesh   12
       Max CFL number:  0.38E+00 at (   5,   1,   8)
       Max divergence:  0.35E+00 at (   5,   1,   5)
       Min divergence:  0.15E-01 at (   1,   1,   1)
       Max div. error:  0.56E-05 at (   8,   1,   2)
       Max VN number:   0.11E-01 at (   1,   1,   1)
       Mesh   13
       Max CFL number:  0.38E+00 at (   8,   1,   5)
       Max divergence:  0.35E+00 at (   5,   1,   5)
       Min divergence:  0.15E-01 at (   1,   1,   1)
       Max div. error:  0.56E-05 at (   4,   1,   8)
       Max VN number:   0.11E-01 at (   1,   1,   1)
       Mesh   14
       Max CFL number:  0.42E+00 at (   4,   1,   4)
       Max divergence:  0.14E+00 at (   1,   1,   5)
       Min divergence: -0.15E+01 at (   5,   1,   5)
       Max div. error:  0.56E-05 at (   2,   1,   8)
       Max VN number:   0.30E-01 at (   5,   1,   5)
       Mesh   15
       Max CFL number:  0.38E+00 at (   8,   1,   5)
       Max divergence:  0.35E+00 at (   5,   1,   5)
       Min divergence:  0.15E-01 at (   1,   1,   1)
       Max div. error:  0.56E-05 at (   2,   1,   8)
       Max VN number:   0.11E-01 at (   1,   1,   1)
       Mesh   16
       Max CFL number:  0.42E+00 at (   4,   1,   4)
       Max divergence:  0.14E+00 at (   1,   1,   5)
       Min divergence: -0.15E+01 at (   5,   1,   5)
       Max div. error:  0.56E-05 at (   8,   1,   5)
       Max VN number:   0.30E-01 at (   5,   1,   5)
 
       Time Step       2   February 19, 2020  19:29:44
       Step Size:    0.223E-01 s, Total Time:       0.04 s
       Pressure Iterations:      1
       Maximum Velocity Error:  0.56E-16 on Mesh   1 at (   4   1   9)
       Maximum Pressure Error:  0.92E+01 on Mesh   9 at (   4   1   4)
       ScaRC: iterations    53, residual  0.29E-08, convergence rate   0.61E+00
       ---------------------------------------------------------------
       Mesh    1
       Max CFL number:  0.47E+00 at (   4,   1,   4)
       Max divergence:  0.33E+00 at (   1,   1,   5)
       Min divergence: -0.31E+01 at (   5,   1,   5)
       Max div. error:  0.58E-05 at (   6,   1,   1)
       Max VN number:   0.28E-01 at (   5,   1,   5)
       Mesh    2
       Max CFL number:  0.40E+00 at (   5,   1,   8)
       Max divergence:  0.70E+00 at (   5,   1,   5)
       Min divergence:  0.60E-02 at (   1,   1,   1)
       Max div. error:  0.58E-05 at (   8,   1,   4)
       Max VN number:   0.11E-01 at (   1,   1,   1)
       Mesh    3
       Max CFL number:  0.47E+00 at (   4,   1,   4)
       Max divergence:  0.33E+00 at (   5,   1,   1)
       Min divergence: -0.31E+01 at (   5,   1,   5)
       Max div. error:  0.58E-05 at (   1,   1,   5)
       Max VN number:   0.28E-01 at (   5,   1,   5)
       Mesh    4
       Max CFL number:  0.40E+00 at (   8,   1,   5)
       Max divergence:  0.70E+00 at (   5,   1,   5)
       Min divergence:  0.60E-02 at (   1,   1,   1)
       Max div. error:  0.58E-05 at (   3,   1,   1)
       Max VN number:   0.11E-01 at (   1,   1,   1)
       Mesh    5
       Max CFL number:  0.40E+00 at (   8,   1,   5)
       Max divergence:  0.70E+00 at (   5,   1,   5)
       Min divergence:  0.60E-02 at (   1,   1,   1)
       Max div. error:  0.58E-05 at (   4,   1,   8)
       Max VN number:   0.11E-01 at (   1,   1,   1)
       Mesh    6
       Max CFL number:  0.47E+00 at (   4,   1,   4)
       Max divergence:  0.33E+00 at (   1,   1,   5)
       Min divergence: -0.31E+01 at (   5,   1,   5)
       Max div. error:  0.58E-05 at (   8,   1,   8)
       Max VN number:   0.28E-01 at (   5,   1,   5)
       Mesh    7
       Max CFL number:  0.40E+00 at (   5,   1,   8)
       Max divergence:  0.70E+00 at (   5,   1,   5)
       Min divergence:  0.60E-02 at (   1,   1,   1)
       Max div. error:  0.58E-05 at (   1,   1,   6)
       Max VN number:   0.11E-01 at (   1,   1,   1)
       Mesh    8
       Max CFL number:  0.47E+00 at (   4,   1,   4)
       Max divergence:  0.33E+00 at (   5,   1,   1)
       Min divergence: -0.31E+01 at (   5,   1,   5)
       Max div. error:  0.58E-05 at (   4,   1,   8)
       Max VN number:   0.28E-01 at (   5,   1,   5)
       Mesh    9
       Max CFL number:  0.47E+00 at (   4,   1,   4)
       Max divergence:  0.33E+00 at (   1,   1,   5)
       Min divergence: -0.31E+01 at (   5,   1,   5)
       Max div. error:  0.58E-05 at (   5,   1,   1)
       Max VN number:   0.28E-01 at (   5,   1,   5)
       Mesh   10
       Max CFL number:  0.40E+00 at (   8,   1,   5)
       Max divergence:  0.70E+00 at (   5,   1,   5)
       Min divergence:  0.60E-02 at (   1,   1,   1)
       Max div. error:  0.58E-05 at (   6,   1,   1)
       Max VN number:   0.11E-01 at (   1,   1,   1)
       Mesh   11
       Max CFL number:  0.47E+00 at (   4,   1,   4)
       Max divergence:  0.33E+00 at (   1,   1,   5)
       Min divergence: -0.31E+01 at (   5,   1,   5)
       Max div. error:  0.58E-05 at (   1,   1,   1)
       Max VN number:   0.28E-01 at (   5,   1,   5)
       Mesh   12
       Max CFL number:  0.40E+00 at (   5,   1,   8)
       Max divergence:  0.70E+00 at (   5,   1,   5)
       Min divergence:  0.60E-02 at (   1,   1,   1)
       Max div. error:  0.58E-05 at (   8,   1,   7)
       Max VN number:   0.11E-01 at (   1,   1,   1)
       Mesh   13
       Max CFL number:  0.40E+00 at (   5,   1,   8)
       Max divergence:  0.70E+00 at (   5,   1,   5)
       Min divergence:  0.60E-02 at (   1,   1,   1)
       Max div. error:  0.58E-05 at (   1,   1,   3)
       Max VN number:   0.11E-01 at (   1,   1,   1)
       Mesh   14
       Max CFL number:  0.47E+00 at (   4,   1,   4)
       Max divergence:  0.33E+00 at (   1,   1,   5)
       Min divergence: -0.31E+01 at (   5,   1,   5)
       Max div. error:  0.58E-05 at (   8,   1,   4)
       Max VN number:   0.28E-01 at (   5,   1,   5)
       Mesh   15
       Max CFL number:  0.40E+00 at (   8,   1,   5)
       Max divergence:  0.70E+00 at (   5,   1,   5)
       Min divergence:  0.60E-02 at (   1,   1,   1)
       Max div. error:  0.58E-05 at (   7,   1,   8)
       Max VN number:   0.11E-01 at (   1,   1,   1)
       Mesh   16
       Max CFL number:  0.47E+00 at (   4,   1,   4)
       Max divergence:  0.33E+00 at (   5,   1,   1)
       Min divergence: -0.31E+01 at (   5,   1,   5)
       Max div. error:  0.58E-05 at (   1,   1,   1)
       Max VN number:   0.28E-01 at (   5,   1,   5)
 
       Time Step       3   February 19, 2020  19:29:44
       Step Size:    0.198E-01 s, Total Time:       0.06 s
       Pressure Iterations:      1
       Maximum Velocity Error:  0.11E-15 on Mesh   9 at (   0   1   1)
       Maximum Pressure Error:  0.67E+01 on Mesh   9 at (   4   1   4)
       ScaRC: iterations    53, residual  0.34E-08, convergence rate   0.61E+00
       ---------------------------------------------------------------
       Mesh    1
       Max CFL number:  0.45E+00 at (   4,   1,   4)
       Max divergence:  0.51E+00 at (   1,   1,   5)
       Min divergence: -0.42E+01 at (   5,   1,   5)
       Max div. error:  0.60E-05 at (   1,   1,   6)
       Max VN number:   0.23E-01 at (   5,   1,   5)
       Mesh    2
       Max CFL number:  0.37E+00 at (   8,   1,   6)
       Max divergence:  0.10E+01 at (   5,   1,   5)
       Min divergence:  0.10E-03 at (   1,   1,   1)
       Max div. error:  0.60E-05 at (   8,   1,   4)
       Max VN number:   0.96E-02 at (   3,   1,   1)
       Mesh    3
       Max CFL number:  0.45E+00 at (   4,   1,   4)
       Max divergence:  0.51E+00 at (   5,   1,   1)
       Min divergence: -0.42E+01 at (   5,   1,   5)
       Max div. error:  0.60E-05 at (   1,   1,   6)
       Max VN number:   0.23E-01 at (   5,   1,   5)
       Mesh    4
       Max CFL number:  0.37E+00 at (   6,   1,   8)
       Max divergence:  0.10E+01 at (   5,   1,   5)
       Min divergence:  0.10E-03 at (   1,   1,   1)
       Max div. error:  0.60E-05 at (   3,   1,   1)
       Max VN number:   0.96E-02 at (   1,   1,   3)
       Mesh    5
       Max CFL number:  0.37E+00 at (   6,   1,   8)
       Max divergence:  0.10E+01 at (   5,   1,   5)
       Min divergence:  0.10E-03 at (   1,   1,   1)
       Max div. error:  0.60E-05 at (   4,   1,   8)
       Max VN number:   0.96E-02 at (   1,   1,   3)
       Mesh    6
       Max CFL number:  0.45E+00 at (   4,   1,   4)
       Max divergence:  0.51E+00 at (   5,   1,   1)
       Min divergence: -0.42E+01 at (   5,   1,   5)
       Max div. error:  0.60E-05 at (   8,   1,   8)
       Max VN number:   0.23E-01 at (   5,   1,   5)
       Mesh    7
       Max CFL number:  0.37E+00 at (   6,   1,   8)
       Max divergence:  0.10E+01 at (   5,   1,   5)
       Min divergence:  0.10E-03 at (   1,   1,   1)
       Max div. error:  0.60E-05 at (   8,   1,   8)
       Max VN number:   0.96E-02 at (   3,   1,   1)
       Mesh    8
       Max CFL number:  0.45E+00 at (   4,   1,   4)
       Max divergence:  0.51E+00 at (   5,   1,   1)
       Min divergence: -0.42E+01 at (   5,   1,   5)
       Max div. error:  0.60E-05 at (   4,   1,   8)
       Max VN number:   0.23E-01 at (   5,   1,   5)
       Mesh    9
       Max CFL number:  0.45E+00 at (   4,   1,   4)
       Max divergence:  0.51E+00 at (   1,   1,   5)
       Min divergence: -0.42E+01 at (   5,   1,   5)
       Max div. error:  0.60E-05 at (   5,   1,   1)
       Max VN number:   0.23E-01 at (   5,   1,   5)
       Mesh   10
       Max CFL number:  0.37E+00 at (   8,   1,   6)
       Max divergence:  0.10E+01 at (   5,   1,   5)
       Min divergence:  0.10E-03 at (   1,   1,   1)
       Max div. error:  0.60E-05 at (   8,   1,   8)
       Max VN number:   0.96E-02 at (   1,   1,   3)
       Mesh   11
       Max CFL number:  0.45E+00 at (   4,   1,   4)
       Max divergence:  0.51E+00 at (   5,   1,   1)
       Min divergence: -0.42E+01 at (   5,   1,   5)
       Max div. error:  0.60E-05 at (   1,   1,   1)
       Max VN number:   0.23E-01 at (   5,   1,   5)
       Mesh   12
       Max CFL number:  0.37E+00 at (   6,   1,   8)
       Max divergence:  0.10E+01 at (   5,   1,   5)
       Min divergence:  0.10E-03 at (   1,   1,   1)
       Max div. error:  0.60E-05 at (   8,   1,   7)
       Max VN number:   0.96E-02 at (   3,   1,   1)
       Mesh   13
       Max CFL number:  0.37E+00 at (   8,   1,   6)
       Max divergence:  0.10E+01 at (   5,   1,   5)
       Min divergence:  0.10E-03 at (   1,   1,   1)
       Max div. error:  0.60E-05 at (   1,   1,   3)
       Max VN number:   0.96E-02 at (   3,   1,   1)
       Mesh   14
       Max CFL number:  0.45E+00 at (   4,   1,   4)
       Max divergence:  0.51E+00 at (   1,   1,   5)
       Min divergence: -0.42E+01 at (   5,   1,   5)
       Max div. error:  0.60E-05 at (   8,   1,   4)
       Max VN number:   0.23E-01 at (   5,   1,   5)
       Mesh   15
       Max CFL number:  0.37E+00 at (   8,   1,   6)
       Max divergence:  0.10E+01 at (   5,   1,   5)
       Min divergence:  0.10E-03 at (   1,   1,   1)
       Max div. error:  0.60E-05 at (   7,   1,   8)
       Max VN number:   0.96E-02 at (   1,   1,   3)
       Mesh   16
       Max CFL number:  0.45E+00 at (   4,   1,   4)
       Max divergence:  0.51E+00 at (   1,   1,   5)
       Min divergence: -0.42E+01 at (   5,   1,   5)
       Max div. error:  0.60E-05 at (   1,   1,   1)
       Max VN number:   0.23E-01 at (   5,   1,   5)
 
       Time Step       4   February 19, 2020  19:29:44
       Step Size:    0.198E-01 s, Total Time:       0.08 s
       Pressure Iterations:      1
       Maximum Velocity Error:  0.11E-15 on Mesh  13 at (   9   1   6)
       Maximum Pressure Error:  0.51E+01 on Mesh   3 at (   4   1   4)
       ScaRC: iterations    53, residual  0.43E-08, convergence rate   0.61E+00
       ---------------------------------------------------------------
       Mesh    1
       Max CFL number:  0.48E+00 at (   5,   1,   5)
       Max divergence:  0.70E+00 at (   1,   1,   5)
       Min divergence: -0.48E+01 at (   5,   1,   5)
       Max div. error:  0.59E-05 at (   6,   1,   1)
       Max VN number:   0.21E-01 at (   5,   1,   5)
       Mesh    2
       Max CFL number:  0.39E+00 at (   8,   1,   6)
       Max divergence:  0.13E+01 at (   5,   1,   5)
       Min divergence:  0.15E-01 at (   1,   1,   1)
       Max div. error:  0.59E-05 at (   5,   1,   1)
       Max VN number:   0.99E-02 at (   5,   1,   1)
       Mesh    3
       Max CFL number:  0.48E+00 at (   5,   1,   5)
       Max divergence:  0.70E+00 at (   5,   1,   1)
       Min divergence: -0.48E+01 at (   5,   1,   5)
       Max div. error:  0.59E-05 at (   8,   1,   8)
       Max VN number:   0.21E-01 at (   5,   1,   5)
       Mesh    4
       Max CFL number:  0.39E+00 at (   6,   1,   8)
       Max divergence:  0.13E+01 at (   5,   1,   5)
       Min divergence:  0.15E-01 at (   1,   1,   1)
       Max div. error:  0.59E-05 at (   3,   1,   1)
       Max VN number:   0.99E-02 at (   5,   1,   1)
       Mesh    5
       Max CFL number:  0.39E+00 at (   6,   1,   8)
       Max divergence:  0.13E+01 at (   5,   1,   5)
       Min divergence:  0.15E-01 at (   1,   1,   1)
       Max div. error:  0.59E-05 at (   1,   1,   5)
       Max VN number:   0.99E-02 at (   1,   1,   5)
       Mesh    6
       Max CFL number:  0.48E+00 at (   5,   1,   5)
       Max divergence:  0.70E+00 at (   5,   1,   1)
       Min divergence: -0.48E+01 at (   5,   1,   5)
       Max div. error:  0.59E-05 at (   8,   1,   8)
       Max VN number:   0.21E-01 at (   5,   1,   5)
       Mesh    7
       Max CFL number:  0.39E+00 at (   6,   1,   8)
       Max divergence:  0.13E+01 at (   5,   1,   5)
       Min divergence:  0.15E-01 at (   1,   1,   1)
       Max div. error:  0.59E-05 at (   1,   1,   6)
       Max VN number:   0.99E-02 at (   5,   1,   1)
       Mesh    8
       Max CFL number:  0.48E+00 at (   5,   1,   5)
       Max divergence:  0.70E+00 at (   5,   1,   1)
       Min divergence: -0.48E+01 at (   5,   1,   5)
       Max div. error:  0.59E-05 at (   4,   1,   8)
       Max VN number:   0.21E-01 at (   5,   1,   5)
       Mesh    9
       Max CFL number:  0.48E+00 at (   5,   1,   5)
       Max divergence:  0.70E+00 at (   1,   1,   5)
       Min divergence: -0.48E+01 at (   5,   1,   5)
       Max div. error:  0.59E-05 at (   8,   1,   8)
       Max VN number:   0.21E-01 at (   5,   1,   5)
       Mesh   10
       Max CFL number:  0.39E+00 at (   8,   1,   6)
       Max divergence:  0.13E+01 at (   5,   1,   5)
       Min divergence:  0.15E-01 at (   1,   1,   1)
       Max div. error:  0.59E-05 at (   6,   1,   1)
       Max VN number:   0.99E-02 at (   1,   1,   5)
       Mesh   11
       Max CFL number:  0.48E+00 at (   5,   1,   5)
       Max divergence:  0.70E+00 at (   1,   1,   5)
       Min divergence: -0.48E+01 at (   5,   1,   5)
       Max div. error:  0.59E-05 at (   1,   1,   1)
       Max VN number:   0.21E-01 at (   5,   1,   5)
       Mesh   12
       Max CFL number:  0.39E+00 at (   6,   1,   8)
       Max divergence:  0.13E+01 at (   5,   1,   5)
       Min divergence:  0.15E-01 at (   1,   1,   1)
       Max div. error:  0.59E-05 at (   8,   1,   7)
       Max VN number:   0.99E-02 at (   5,   1,   1)
       Mesh   13
       Max CFL number:  0.39E+00 at (   8,   1,   6)
       Max divergence:  0.13E+01 at (   5,   1,   5)
       Min divergence:  0.15E-01 at (   1,   1,   1)
       Max div. error:  0.59E-05 at (   1,   1,   3)
       Max VN number:   0.99E-02 at (   1,   1,   5)
       Mesh   14
       Max CFL number:  0.48E+00 at (   5,   1,   5)
       Max divergence:  0.70E+00 at (   1,   1,   5)
       Min divergence: -0.48E+01 at (   5,   1,   5)
       Max div. error:  0.59E-05 at (   8,   1,   4)
       Max VN number:   0.21E-01 at (   5,   1,   5)
       Mesh   15
       Max CFL number:  0.39E+00 at (   8,   1,   6)
       Max divergence:  0.13E+01 at (   5,   1,   5)
       Min divergence:  0.15E-01 at (   1,   1,   1)
       Max div. error:  0.59E-05 at (   7,   1,   8)
       Max VN number:   0.99E-02 at (   1,   1,   5)
       Mesh   16
       Max CFL number:  0.48E+00 at (   5,   1,   5)
       Max divergence:  0.70E+00 at (   5,   1,   1)
       Min divergence: -0.48E+01 at (   5,   1,   5)
       Max div. error:  0.59E-05 at (   8,   1,   2)
       Max VN number:   0.21E-01 at (   5,   1,   5)
 
       Time Step       5   February 19, 2020  19:29:44
       Step Size:    0.177E-01 s, Total Time:       0.10 s
       Pressure Iterations:      1
       Maximum Velocity Error:  0.11E-15 on Mesh   1 at (   0   1   6)
       Maximum Pressure Error:  0.34E+01 on Mesh   9 at (   5   1   4)
       ScaRC: iterations    53, residual  0.55E-08, convergence rate   0.61E+00
       ---------------------------------------------------------------
       Mesh    1
       Max CFL number:  0.45E+00 at (   5,   1,   5)
       Max divergence:  0.86E+00 at (   1,   1,   5)
       Min divergence: -0.51E+01 at (   5,   1,   5)
       Max div. error:  0.51E-05 at (   6,   1,   1)
       Max VN number:   0.17E-01 at (   5,   1,   5)
       Mesh    2
       Max CFL number:  0.36E+00 at (   8,   1,   6)
       Max divergence:  0.16E+01 at (   5,   1,   5)
       Min divergence: -0.26E-01 at (   1,   1,   2)
       Max div. error:  0.51E-05 at (   8,   1,   4)
       Max VN number:   0.91E-02 at (   5,   1,   1)
       Mesh    3
       Max CFL number:  0.45E+00 at (   5,   1,   5)
       Max divergence:  0.86E+00 at (   5,   1,   1)
       Min divergence: -0.51E+01 at (   5,   1,   5)
       Max div. error:  0.51E-05 at (   1,   1,   6)
       Max VN number:   0.17E-01 at (   5,   1,   5)
       Mesh    4
       Max CFL number:  0.36E+00 at (   6,   1,   8)
       Max divergence:  0.16E+01 at (   5,   1,   5)
       Min divergence: -0.26E-01 at (   1,   1,   2)
       Max div. error:  0.51E-05 at (   3,   1,   1)
       Max VN number:   0.91E-02 at (   5,   1,   1)
       Mesh    5
       Max CFL number:  0.36E+00 at (   6,   1,   8)
       Max divergence:  0.16E+01 at (   5,   1,   5)
       Min divergence: -0.26E-01 at (   2,   1,   1)
       Max div. error:  0.51E-05 at (   4,   1,   8)
       Max VN number:   0.91E-02 at (   1,   1,   5)
       Mesh    6
       Max CFL number:  0.45E+00 at (   5,   1,   5)
       Max divergence:  0.86E+00 at (   1,   1,   5)
       Min divergence: -0.51E+01 at (   5,   1,   5)
       Max div. error:  0.51E-05 at (   8,   1,   8)
       Max VN number:   0.17E-01 at (   5,   1,   5)
       Mesh    7
       Max CFL number:  0.36E+00 at (   6,   1,   8)
       Max divergence:  0.16E+01 at (   5,   1,   5)
       Min divergence: -0.26E-01 at (   1,   1,   2)
       Max div. error:  0.51E-05 at (   1,   1,   6)
       Max VN number:   0.91E-02 at (   5,   1,   1)
       Mesh    8
       Max CFL number:  0.45E+00 at (   5,   1,   5)
       Max divergence:  0.86E+00 at (   5,   1,   1)
       Min divergence: -0.51E+01 at (   5,   1,   5)
       Max div. error:  0.51E-05 at (   4,   1,   8)
       Max VN number:   0.17E-01 at (   5,   1,   5)
       Mesh    9
       Max CFL number:  0.45E+00 at (   5,   1,   5)
       Max divergence:  0.86E+00 at (   1,   1,   5)
       Min divergence: -0.51E+01 at (   5,   1,   5)
       Max div. error:  0.51E-05 at (   6,   1,   1)
       Max VN number:   0.17E-01 at (   5,   1,   5)
       Mesh   10
       Max CFL number:  0.36E+00 at (   8,   1,   6)
       Max divergence:  0.16E+01 at (   5,   1,   5)
       Min divergence: -0.26E-01 at (   2,   1,   1)
       Max div. error:  0.51E-05 at (   6,   1,   1)
       Max VN number:   0.91E-02 at (   1,   1,   5)
       Mesh   11
       Max CFL number:  0.45E+00 at (   5,   1,   5)
       Max divergence:  0.86E+00 at (   1,   1,   5)
       Min divergence: -0.51E+01 at (   5,   1,   5)
       Max div. error:  0.51E-05 at (   1,   1,   1)
       Max VN number:   0.17E-01 at (   5,   1,   5)
       Mesh   12
       Max CFL number:  0.36E+00 at (   6,   1,   8)
       Max divergence:  0.16E+01 at (   5,   1,   5)
       Min divergence: -0.26E-01 at (   1,   1,   2)
       Max div. error:  0.51E-05 at (   8,   1,   7)
       Max VN number:   0.91E-02 at (   5,   1,   1)
       Mesh   13
       Max CFL number:  0.36E+00 at (   8,   1,   6)
       Max divergence:  0.16E+01 at (   5,   1,   5)
       Min divergence: -0.26E-01 at (   2,   1,   1)
       Max div. error:  0.51E-05 at (   1,   1,   3)
       Max VN number:   0.91E-02 at (   1,   1,   5)
       Mesh   14
       Max CFL number:  0.45E+00 at (   5,   1,   5)
       Max divergence:  0.86E+00 at (   1,   1,   5)
       Min divergence: -0.51E+01 at (   5,   1,   5)
       Max div. error:  0.51E-05 at (   8,   1,   4)
       Max VN number:   0.17E-01 at (   5,   1,   5)
       Mesh   15
       Max CFL number:  0.36E+00 at (   8,   1,   6)
       Max divergence:  0.16E+01 at (   5,   1,   5)
       Min divergence: -0.26E-01 at (   2,   1,   1)
       Max div. error:  0.51E-05 at (   7,   1,   8)
       Max VN number:   0.91E-02 at (   1,   1,   5)
       Mesh   16
       Max CFL number:  0.45E+00 at (   5,   1,   5)
       Max divergence:  0.86E+00 at (   5,   1,   1)
       Min divergence: -0.51E+01 at (   5,   1,   5)
       Max div. error:  0.51E-05 at (   1,   1,   1)
       Max VN number:   0.17E-01 at (   5,   1,   5)
 
       Time Step       6   February 19, 2020  19:29:44
       Step Size:    0.177E-01 s, Total Time:       0.12 s
       Pressure Iterations:      1
       Maximum Velocity Error:  0.11E-15 on Mesh   1 at (   6   1   0)
       Maximum Pressure Error:  0.27E+01 on Mesh  14 at (   6   1   4)
       ScaRC: iterations    53, residual  0.67E-08, convergence rate   0.61E+00
       ---------------------------------------------------------------
       Mesh    1
       Max CFL number:  0.46E+00 at (   5,   1,   5)
       Max divergence:  0.10E+01 at (   1,   1,   5)
       Min divergence: -0.51E+01 at (   5,   1,   5)
       Max div. error:  0.38E-05 at (   6,   1,   1)
       Max VN number:   0.15E-01 at (   6,   1,   6)
       Mesh    2
       Max CFL number:  0.37E+00 at (   7,   1,   7)
       Max divergence:  0.19E+01 at (   5,   1,   5)
       Min divergence: -0.57E-01 at (   1,   1,   2)
       Max div. error:  0.38E-05 at (   8,   1,   4)
       Max VN number:   0.93E-02 at (   5,   1,   1)
       Mesh    3
       Max CFL number:  0.46E+00 at (   5,   1,   5)
       Max divergence:  0.10E+01 at (   5,   1,   1)
       Min divergence: -0.51E+01 at (   5,   1,   5)
       Max div. error:  0.38E-05 at (   1,   1,   6)
       Max VN number:   0.15E-01 at (   6,   1,   6)
       Mesh    4
       Max CFL number:  0.37E+00 at (   7,   1,   7)
       Max divergence:  0.19E+01 at (   5,   1,   5)
       Min divergence: -0.57E-01 at (   1,   1,   2)
       Max div. error:  0.38E-05 at (   3,   1,   1)
       Max VN number:   0.93E-02 at (   5,   1,   1)
       Mesh    5
       Max CFL number:  0.37E+00 at (   7,   1,   7)
       Max divergence:  0.19E+01 at (   5,   1,   5)
       Min divergence: -0.57E-01 at (   2,   1,   1)
       Max div. error:  0.38E-05 at (   4,   1,   8)
       Max VN number:   0.93E-02 at (   1,   1,   5)
       Mesh    6
       Max CFL number:  0.46E+00 at (   5,   1,   5)
       Max divergence:  0.10E+01 at (   1,   1,   5)
       Min divergence: -0.51E+01 at (   5,   1,   5)
       Max div. error:  0.38E-05 at (   8,   1,   8)
       Max VN number:   0.15E-01 at (   6,   1,   6)
       Mesh    7
       Max CFL number:  0.37E+00 at (   7,   1,   7)
       Max divergence:  0.19E+01 at (   5,   1,   5)
       Min divergence: -0.57E-01 at (   1,   1,   2)
       Max div. error:  0.38E-05 at (   1,   1,   6)
       Max VN number:   0.93E-02 at (   5,   1,   1)
       Mesh    8
       Max CFL number:  0.46E+00 at (   5,   1,   5)
       Max divergence:  0.10E+01 at (   5,   1,   1)
       Min divergence: -0.51E+01 at (   5,   1,   5)
       Max div. error:  0.38E-05 at (   4,   1,   8)
       Max VN number:   0.15E-01 at (   6,   1,   6)
       Mesh    9
       Max CFL number:  0.46E+00 at (   5,   1,   5)
       Max divergence:  0.10E+01 at (   1,   1,   5)
       Min divergence: -0.51E+01 at (   5,   1,   5)
       Max div. error:  0.38E-05 at (   6,   1,   1)
       Max VN number:   0.15E-01 at (   6,   1,   6)
       Mesh   10
       Max CFL number:  0.37E+00 at (   7,   1,   7)
       Max divergence:  0.19E+01 at (   5,   1,   5)
       Min divergence: -0.57E-01 at (   2,   1,   1)
       Max div. error:  0.38E-05 at (   6,   1,   1)
       Max VN number:   0.93E-02 at (   1,   1,   5)
       Mesh   11
       Max CFL number:  0.46E+00 at (   5,   1,   5)
       Max divergence:  0.10E+01 at (   5,   1,   1)
       Min divergence: -0.51E+01 at (   5,   1,   5)
       Max div. error:  0.38E-05 at (   1,   1,   1)
       Max VN number:   0.15E-01 at (   6,   1,   6)
       Mesh   12
       Max CFL number:  0.37E+00 at (   7,   1,   7)
       Max divergence:  0.19E+01 at (   5,   1,   5)
       Min divergence: -0.57E-01 at (   1,   1,   2)
       Max div. error:  0.38E-05 at (   8,   1,   7)
       Max VN number:   0.93E-02 at (   5,   1,   1)
       Mesh   13
       Max CFL number:  0.37E+00 at (   7,   1,   7)
       Max divergence:  0.19E+01 at (   5,   1,   5)
       Min divergence: -0.57E-01 at (   2,   1,   1)
       Max div. error:  0.38E-05 at (   1,   1,   3)
       Max VN number:   0.93E-02 at (   1,   1,   5)
       Mesh   14
       Max CFL number:  0.46E+00 at (   5,   1,   5)
       Max divergence:  0.10E+01 at (   1,   1,   5)
       Min divergence: -0.51E+01 at (   5,   1,   5)
       Max div. error:  0.38E-05 at (   8,   1,   4)
       Max VN number:   0.15E-01 at (   6,   1,   6)
       Mesh   15
       Max CFL number:  0.37E+00 at (   7,   1,   7)
       Max divergence:  0.19E+01 at (   5,   1,   5)
       Min divergence: -0.57E-01 at (   2,   1,   1)
       Max div. error:  0.38E-05 at (   7,   1,   8)
       Max VN number:   0.93E-02 at (   1,   1,   5)
       Mesh   16
       Max CFL number:  0.46E+00 at (   5,   1,   5)
       Max divergence:  0.10E+01 at (   1,   1,   5)
       Min divergence: -0.51E+01 at (   5,   1,   5)
       Max div. error:  0.38E-05 at (   1,   1,   1)
       Max VN number:   0.15E-01 at (   6,   1,   6)
 
       Time Step       7   February 19, 2020  19:29:44
       Step Size:    0.177E-01 s, Total Time:       0.14 s
       Pressure Iterations:      1
       Maximum Velocity Error:  0.11E-15 on Mesh   1 at (   6   1   0)
       Maximum Pressure Error:  0.20E+01 on Mesh   8 at (   4   1   5)
       ScaRC: iterations    53, residual  0.77E-08, convergence rate   0.61E+00
       ---------------------------------------------------------------
       Mesh    1
       Max CFL number:  0.47E+00 at (   5,   1,   5)
       Max divergence:  0.12E+01 at (   1,   1,   6)
       Min divergence: -0.53E+01 at (   6,   1,   6)
       Max div. error:  0.24E-05 at (   6,   1,   1)
       Max VN number:   0.14E-01 at (   6,   1,   6)
       Mesh    2
       Max CFL number:  0.38E+00 at (   7,   1,   8)
       Max divergence:  0.22E+01 at (   6,   1,   6)
       Min divergence: -0.18E+00 at (   8,   1,   1)
       Max div. error:  0.24E-05 at (   8,   1,   4)
       Max VN number:   0.95E-02 at (   5,   1,   1)
       Mesh    3
       Max CFL number:  0.47E+00 at (   5,   1,   5)
       Max divergence:  0.12E+01 at (   6,   1,   1)
       Min divergence: -0.53E+01 at (   6,   1,   6)
       Max div. error:  0.24E-05 at (   1,   1,   6)
       Max VN number:   0.14E-01 at (   6,   1,   6)
       Mesh    4
       Max CFL number:  0.38E+00 at (   7,   1,   8)
       Max divergence:  0.22E+01 at (   6,   1,   6)
       Min divergence: -0.18E+00 at (   1,   1,   8)
       Max div. error:  0.24E-05 at (   3,   1,   1)
       Max VN number:   0.95E-02 at (   5,   1,   1)
       Mesh    5
       Max CFL number:  0.38E+00 at (   8,   1,   7)
       Max divergence:  0.22E+01 at (   6,   1,   6)
       Min divergence: -0.18E+00 at (   1,   1,   8)
       Max div. error:  0.24E-05 at (   4,   1,   8)
       Max VN number:   0.95E-02 at (   1,   1,   5)
       Mesh    6
       Max CFL number:  0.47E+00 at (   5,   1,   5)
       Max divergence:  0.12E+01 at (   1,   1,   6)
       Min divergence: -0.53E+01 at (   6,   1,   6)
       Max div. error:  0.24E-05 at (   8,   1,   8)
       Max VN number:   0.14E-01 at (   6,   1,   6)
       Mesh    7
       Max CFL number:  0.38E+00 at (   8,   1,   7)
       Max divergence:  0.22E+01 at (   6,   1,   6)
       Min divergence: -0.18E+00 at (   1,   1,   8)
       Max div. error:  0.24E-05 at (   1,   1,   6)
       Max VN number:   0.95E-02 at (   5,   1,   1)
       Mesh    8
       Max CFL number:  0.47E+00 at (   5,   1,   5)
       Max divergence:  0.12E+01 at (   6,   1,   1)
       Min divergence: -0.53E+01 at (   6,   1,   6)
       Max div. error:  0.24E-05 at (   4,   1,   8)
       Max VN number:   0.14E-01 at (   6,   1,   6)
       Mesh    9
       Max CFL number:  0.47E+00 at (   5,   1,   5)
       Max divergence:  0.12E+01 at (   1,   1,   6)
       Min divergence: -0.53E+01 at (   6,   1,   6)
       Max div. error:  0.24E-05 at (   6,   1,   1)
       Max VN number:   0.14E-01 at (   6,   1,   6)
       Mesh   10
       Max CFL number:  0.38E+00 at (   7,   1,   8)
       Max divergence:  0.22E+01 at (   6,   1,   6)
       Min divergence: -0.18E+00 at (   8,   1,   1)
       Max div. error:  0.24E-05 at (   6,   1,   1)
       Max VN number:   0.95E-02 at (   1,   1,   5)
       Mesh   11
       Max CFL number:  0.47E+00 at (   5,   1,   5)
       Max divergence:  0.12E+01 at (   6,   1,   1)
       Min divergence: -0.53E+01 at (   6,   1,   6)
       Max div. error:  0.24E-05 at (   1,   1,   1)
       Max VN number:   0.14E-01 at (   6,   1,   6)
       Mesh   12
       Max CFL number:  0.38E+00 at (   7,   1,   8)
       Max divergence:  0.22E+01 at (   6,   1,   6)
       Min divergence: -0.18E+00 at (   1,   1,   8)
       Max div. error:  0.24E-05 at (   8,   1,   7)
       Max VN number:   0.95E-02 at (   5,   1,   1)
       Mesh   13
       Max CFL number:  0.38E+00 at (   8,   1,   7)
       Max divergence:  0.22E+01 at (   6,   1,   6)
       Min divergence: -0.18E+00 at (   8,   1,   1)
       Max div. error:  0.24E-05 at (   1,   1,   3)
       Max VN number:   0.95E-02 at (   1,   1,   5)
       Mesh   14
       Max CFL number:  0.47E+00 at (   5,   1,   5)
       Max divergence:  0.12E+01 at (   1,   1,   6)
       Min divergence: -0.53E+01 at (   6,   1,   6)
       Max div. error:  0.24E-05 at (   8,   1,   4)
       Max VN number:   0.14E-01 at (   6,   1,   6)
       Mesh   15
       Max CFL number:  0.38E+00 at (   8,   1,   7)
       Max divergence:  0.22E+01 at (   6,   1,   6)
       Min divergence: -0.18E+00 at (   8,   1,   1)
       Max div. error:  0.24E-05 at (   7,   1,   8)
       Max VN number:   0.95E-02 at (   1,   1,   5)
       Mesh   16
       Max CFL number:  0.47E+00 at (   5,   1,   5)
       Max divergence:  0.12E+01 at (   1,   1,   6)
       Min divergence: -0.53E+01 at (   6,   1,   6)
       Max div. error:  0.24E-05 at (   1,   1,   1)
       Max VN number:   0.14E-01 at (   6,   1,   6)
 
       Time Step       8   February 19, 2020  19:29:44
       Step Size:    0.177E-01 s, Total Time:       0.16 s
       Pressure Iterations:      1
       Maximum Velocity Error:  0.11E-15 on Mesh   1 at (   0   1   2)
       Maximum Pressure Error:  0.18E+01 on Mesh   8 at (   5   1   7)
       ScaRC: iterations    53, residual  0.82E-08, convergence rate   0.61E+00
       ---------------------------------------------------------------
       Mesh    1
       Max CFL number:  0.47E+00 at (   5,   1,   5)
       Max divergence:  0.14E+01 at (   6,   1,   1)
       Min divergence: -0.54E+01 at (   6,   1,   6)
       Max div. error:  0.88E-06 at (   1,   1,   6)
       Max VN number:   0.13E-01 at (   6,   1,   6)
       Mesh    2
       Max CFL number:  0.40E+00 at (   7,   1,   8)
       Max divergence:  0.25E+01 at (   6,   1,   6)
       Min divergence: -0.39E+00 at (   1,   1,   4)
       Max div. error:  0.88E-06 at (   8,   1,   4)
       Max VN number:   0.95E-02 at (   1,   1,   6)
       Mesh    3
       Max CFL number:  0.47E+00 at (   5,   1,   5)
       Max divergence:  0.14E+01 at (   6,   1,   1)
       Min divergence: -0.54E+01 at (   6,   1,   6)
       Max div. error:  0.88E-06 at (   1,   1,   6)
       Max VN number:   0.13E-01 at (   6,   1,   6)
       Mesh    4
       Max CFL number:  0.40E+00 at (   7,   1,   8)
       Max divergence:  0.25E+01 at (   6,   1,   6)
       Min divergence: -0.39E+00 at (   1,   1,   4)
       Max div. error:  0.88E-06 at (   3,   1,   1)
       Max VN number:   0.95E-02 at (   6,   1,   1)
       Mesh    5
       Max CFL number:  0.40E+00 at (   8,   1,   7)
       Max divergence:  0.25E+01 at (   6,   1,   6)
       Min divergence: -0.39E+00 at (   4,   1,   1)
       Max div. error:  0.88E-06 at (   4,   1,   8)
       Max VN number:   0.95E-02 at (   6,   1,   1)
       Mesh    6
       Max CFL number:  0.47E+00 at (   5,   1,   5)
       Max divergence:  0.14E+01 at (   1,   1,   6)
       Min divergence: -0.54E+01 at (   6,   1,   6)
       Max div. error:  0.88E-06 at (   8,   1,   8)
       Max VN number:   0.13E-01 at (   6,   1,   6)
       Mesh    7
       Max CFL number:  0.40E+00 at (   7,   1,   8)
       Max divergence:  0.25E+01 at (   6,   1,   6)
       Min divergence: -0.39E+00 at (   1,   1,   4)
       Max div. error:  0.88E-06 at (   1,   1,   6)
       Max VN number:   0.95E-02 at (   6,   1,   1)
       Mesh    8
       Max CFL number:  0.47E+00 at (   5,   1,   5)
       Max divergence:  0.14E+01 at (   6,   1,   1)
       Min divergence: -0.54E+01 at (   6,   1,   6)
       Max div. error:  0.88E-06 at (   4,   1,   8)
       Max VN number:   0.13E-01 at (   6,   1,   6)
       Mesh    9
       Max CFL number:  0.47E+00 at (   5,   1,   5)
       Max divergence:  0.14E+01 at (   1,   1,   6)
       Min divergence: -0.54E+01 at (   6,   1,   6)
       Max div. error:  0.88E-06 at (   6,   1,   1)
       Max VN number:   0.13E-01 at (   6,   1,   6)
       Mesh   10
       Max CFL number:  0.40E+00 at (   8,   1,   7)
       Max divergence:  0.25E+01 at (   6,   1,   6)
       Min divergence: -0.39E+00 at (   4,   1,   1)
       Max div. error:  0.88E-06 at (   6,   1,   1)
       Max VN number:   0.95E-02 at (   1,   1,   6)
       Mesh   11
       Max CFL number:  0.47E+00 at (   5,   1,   5)
       Max divergence:  0.14E+01 at (   6,   1,   1)
       Min divergence: -0.54E+01 at (   6,   1,   6)
       Max div. error:  0.88E-06 at (   1,   1,   1)
       Max VN number:   0.13E-01 at (   6,   1,   6)
       Mesh   12
       Max CFL number:  0.40E+00 at (   7,   1,   8)
       Max divergence:  0.25E+01 at (   6,   1,   6)
       Min divergence: -0.39E+00 at (   1,   1,   4)
       Max div. error:  0.88E-06 at (   8,   1,   7)
       Max VN number:   0.95E-02 at (   6,   1,   1)
       Mesh   13
       Max CFL number:  0.40E+00 at (   8,   1,   7)
       Max divergence:  0.25E+01 at (   6,   1,   6)
       Min divergence: -0.39E+00 at (   4,   1,   1)
       Max div. error:  0.88E-06 at (   1,   1,   3)
       Max VN number:   0.95E-02 at (   1,   1,   6)
       Mesh   14
       Max CFL number:  0.47E+00 at (   5,   1,   5)
       Max divergence:  0.14E+01 at (   1,   1,   6)
       Min divergence: -0.54E+01 at (   6,   1,   6)
       Max div. error:  0.88E-06 at (   8,   1,   4)
       Max VN number:   0.13E-01 at (   6,   1,   6)
       Mesh   15
       Max CFL number:  0.40E+00 at (   8,   1,   7)
       Max divergence:  0.25E+01 at (   6,   1,   6)
       Min divergence: -0.39E+00 at (   4,   1,   1)
       Max div. error:  0.88E-06 at (   7,   1,   8)
       Max VN number:   0.95E-02 at (   1,   1,   6)
       Mesh   16
       Max CFL number:  0.47E+00 at (   5,   1,   5)
       Max divergence:  0.14E+01 at (   1,   1,   6)
       Min divergence: -0.54E+01 at (   6,   1,   6)
       Max div. error:  0.88E-06 at (   1,   1,   1)
       Max VN number:   0.13E-01 at (   6,   1,   6)
 
       Time Step       9   February 19, 2020  19:29:44
       Step Size:    0.177E-01 s, Total Time:       0.17 s
       Pressure Iterations:      1
       Maximum Velocity Error:  0.11E-15 on Mesh   1 at (   0   1   6)
       Maximum Pressure Error:  0.15E+01 on Mesh  14 at (   5   1   7)
       ScaRC: iterations    53, residual  0.80E-08, convergence rate   0.61E+00
       ---------------------------------------------------------------
       Mesh    1
       Max CFL number:  0.47E+00 at (   5,   1,   5)
       Max divergence:  0.16E+01 at (   1,   1,   6)
       Min divergence: -0.53E+01 at (   6,   1,   6)
       Max div. error:  0.34E-07 at (   6,   1,   1)
       Max VN number:   0.12E-01 at (   6,   1,   7)
       Mesh    2
       Max CFL number:  0.41E+00 at (   7,   1,   8)
       Max divergence:  0.28E+01 at (   6,   1,   6)
       Min divergence: -0.77E+00 at (   6,   1,   1)
       Max div. error:  0.34E-07 at (   8,   1,   4)
       Max VN number:   0.95E-02 at (   1,   1,   6)
       Mesh    3
       Max CFL number:  0.47E+00 at (   5,   1,   5)
       Max divergence:  0.16E+01 at (   6,   1,   1)
       Min divergence: -0.53E+01 at (   6,   1,   6)
       Max div. error:  0.34E-07 at (   1,   1,   6)
       Max VN number:   0.12E-01 at (   6,   1,   7)
       Mesh    4
       Max CFL number:  0.41E+00 at (   7,   1,   8)
       Max divergence:  0.28E+01 at (   6,   1,   6)
       Min divergence: -0.77E+00 at (   6,   1,   1)
       Max div. error:  0.34E-07 at (   3,   1,   1)
       Max VN number:   0.95E-02 at (   6,   1,   1)
       Mesh    5
       Max CFL number:  0.41E+00 at (   8,   1,   7)
       Max divergence:  0.28E+01 at (   6,   1,   6)
       Min divergence: -0.77E+00 at (   1,   1,   6)
       Max div. error:  0.34E-07 at (   4,   1,   8)
       Max VN number:   0.95E-02 at (   6,   1,   1)
       Mesh    6
       Max CFL number:  0.47E+00 at (   5,   1,   5)
       Max divergence:  0.16E+01 at (   6,   1,   1)
       Min divergence: -0.53E+01 at (   6,   1,   6)
       Max div. error:  0.34E-07 at (   8,   1,   8)
       Max VN number:   0.12E-01 at (   7,   1,   6)
       Mesh    7
       Max CFL number:  0.41E+00 at (   7,   1,   8)
       Max divergence:  0.28E+01 at (   6,   1,   6)
       Min divergence: -0.77E+00 at (   1,   1,   6)
       Max div. error:  0.34E-07 at (   1,   1,   6)
       Max VN number:   0.95E-02 at (   6,   1,   1)
       Mesh    8
       Max CFL number:  0.47E+00 at (   5,   1,   5)
       Max divergence:  0.16E+01 at (   6,   1,   1)
       Min divergence: -0.53E+01 at (   6,   1,   6)
       Max div. error:  0.34E-07 at (   4,   1,   8)
       Max VN number:   0.12E-01 at (   7,   1,   6)
       Mesh    9
       Max CFL number:  0.47E+00 at (   5,   1,   5)
       Max divergence:  0.16E+01 at (   1,   1,   6)
       Min divergence: -0.53E+01 at (   6,   1,   6)
       Max div. error:  0.34E-07 at (   6,   1,   1)
       Max VN number:   0.12E-01 at (   7,   1,   6)
       Mesh   10
       Max CFL number:  0.41E+00 at (   8,   1,   7)
       Max divergence:  0.28E+01 at (   6,   1,   6)
       Min divergence: -0.77E+00 at (   6,   1,   1)
       Max div. error:  0.34E-07 at (   6,   1,   1)
       Max VN number:   0.95E-02 at (   1,   1,   6)
       Mesh   11
       Max CFL number:  0.47E+00 at (   5,   1,   5)
       Max divergence:  0.16E+01 at (   1,   1,   6)
       Min divergence: -0.53E+01 at (   6,   1,   6)
       Max div. error:  0.34E-07 at (   8,   1,   8)
       Max VN number:   0.12E-01 at (   6,   1,   7)
       Mesh   12
       Max CFL number:  0.41E+00 at (   7,   1,   8)
       Max divergence:  0.28E+01 at (   6,   1,   6)
       Min divergence: -0.77E+00 at (   1,   1,   6)
       Max div. error:  0.34E-07 at (   8,   1,   7)
       Max VN number:   0.95E-02 at (   6,   1,   1)
       Mesh   13
       Max CFL number:  0.41E+00 at (   8,   1,   7)
       Max divergence:  0.28E+01 at (   6,   1,   6)
       Min divergence: -0.77E+00 at (   1,   1,   6)
       Max div. error:  0.34E-07 at (   1,   1,   3)
       Max VN number:   0.95E-02 at (   1,   1,   6)
       Mesh   14
       Max CFL number:  0.47E+00 at (   5,   1,   5)
       Max divergence:  0.16E+01 at (   1,   1,   6)
       Min divergence: -0.53E+01 at (   6,   1,   6)
       Max div. error:  0.34E-07 at (   8,   1,   4)
       Max VN number:   0.12E-01 at (   6,   1,   7)
       Mesh   15
       Max CFL number:  0.41E+00 at (   8,   1,   7)
       Max divergence:  0.28E+01 at (   6,   1,   6)
       Min divergence: -0.77E+00 at (   6,   1,   1)
       Max div. error:  0.34E-07 at (   7,   1,   8)
       Max VN number:   0.95E-02 at (   1,   1,   6)
       Mesh   16
       Max CFL number:  0.47E+00 at (   5,   1,   5)
       Max divergence:  0.16E+01 at (   1,   1,   6)
       Min divergence: -0.53E+01 at (   6,   1,   6)
       Max div. error:  0.34E-07 at (   1,   1,   1)
       Max VN number:   0.12E-01 at (   7,   1,   6)
 
       Time Step      10   February 19, 2020  19:29:44
       Step Size:    0.177E-01 s, Total Time:       0.19 s
       Pressure Iterations:      1
       Maximum Velocity Error:  0.11E-15 on Mesh   1 at (   0   1   5)
       Maximum Pressure Error:  0.11E+01 on Mesh   1 at (   7   1   7)
       ScaRC: iterations    53, residual  0.69E-08, convergence rate   0.61E+00
       ---------------------------------------------------------------
       Mesh    1
       Max CFL number:  0.47E+00 at (   5,   1,   5)
       Max divergence:  0.17E+01 at (   6,   1,   1)
       Min divergence: -0.51E+01 at (   6,   1,   6)
       Max div. error:  0.12E-05 at (   1,   1,   5)
       Max VN number:   0.11E-01 at (   7,   1,   7)
       Mesh    2
       Max CFL number:  0.42E+00 at (   7,   1,   8)
       Max divergence:  0.31E+01 at (   6,   1,   6)
       Min divergence: -0.12E+01 at (   6,   1,   1)
       Max div. error:  0.12E-05 at (   2,   1,   1)
       Max VN number:   0.94E-02 at (   1,   1,   6)
       Mesh    3
       Max CFL number:  0.47E+00 at (   5,   1,   5)
       Max divergence:  0.17E+01 at (   6,   1,   1)
       Min divergence: -0.51E+01 at (   6,   1,   6)
       Max div. error:  0.12E-05 at (   1,   1,   1)
       Max VN number:   0.11E-01 at (   7,   1,   7)
       Mesh    4
       Max CFL number:  0.42E+00 at (   7,   1,   8)
       Max divergence:  0.31E+01 at (   6,   1,   6)
       Min divergence: -0.12E+01 at (   6,   1,   1)
       Max div. error:  0.12E-05 at (   5,   1,   1)
       Max VN number:   0.94E-02 at (   6,   1,   1)
       Mesh    5
       Max CFL number:  0.42E+00 at (   8,   1,   7)
       Max divergence:  0.31E+01 at (   6,   1,   6)
       Min divergence: -0.12E+01 at (   1,   1,   6)
       Max div. error:  0.12E-05 at (   1,   1,   2)
       Max VN number:   0.94E-02 at (   6,   1,   1)
       Mesh    6
       Max CFL number:  0.47E+00 at (   5,   1,   5)
       Max divergence:  0.17E+01 at (   6,   1,   1)
       Min divergence: -0.51E+01 at (   6,   1,   6)
       Max div. error:  0.12E-05 at (   4,   1,   8)
       Max VN number:   0.11E-01 at (   7,   1,   7)
       Mesh    7
       Max CFL number:  0.42E+00 at (   7,   1,   8)
       Max divergence:  0.31E+01 at (   6,   1,   6)
       Min divergence: -0.12E+01 at (   1,   1,   6)
       Max div. error:  0.12E-05 at (   1,   1,   1)
       Max VN number:   0.94E-02 at (   6,   1,   1)
       Mesh    8
       Max CFL number:  0.47E+00 at (   5,   1,   5)
       Max divergence:  0.17E+01 at (   6,   1,   1)
       Min divergence: -0.51E+01 at (   6,   1,   6)
       Max div. error:  0.12E-05 at (   8,   1,   8)
       Max VN number:   0.11E-01 at (   7,   1,   7)
       Mesh    9
       Max CFL number:  0.47E+00 at (   5,   1,   5)
       Max divergence:  0.17E+01 at (   1,   1,   6)
       Min divergence: -0.51E+01 at (   6,   1,   6)
       Max div. error:  0.12E-05 at (   1,   1,   1)
       Max VN number:   0.11E-01 at (   7,   1,   7)
       Mesh   10
       Max CFL number:  0.42E+00 at (   8,   1,   7)
       Max divergence:  0.31E+01 at (   6,   1,   6)
       Min divergence: -0.12E+01 at (   6,   1,   1)
       Max div. error:  0.12E-05 at (   1,   1,   1)
       Max VN number:   0.94E-02 at (   1,   1,   6)
       Mesh   11
       Max CFL number:  0.47E+00 at (   5,   1,   5)
       Max divergence:  0.17E+01 at (   1,   1,   6)
       Min divergence: -0.51E+01 at (   6,   1,   6)
       Max div. error:  0.12E-05 at (   8,   1,   1)
       Max VN number:   0.11E-01 at (   7,   1,   7)
       Mesh   12
       Max CFL number:  0.42E+00 at (   7,   1,   8)
       Max divergence:  0.31E+01 at (   6,   1,   6)
       Min divergence: -0.12E+01 at (   1,   1,   6)
       Max div. error:  0.12E-05 at (   8,   1,   6)
       Max VN number:   0.94E-02 at (   6,   1,   1)
       Mesh   13
       Max CFL number:  0.42E+00 at (   8,   1,   7)
       Max divergence:  0.31E+01 at (   6,   1,   6)
       Min divergence: -0.12E+01 at (   1,   1,   6)
       Max div. error:  0.12E-05 at (   1,   1,   5)
       Max VN number:   0.94E-02 at (   1,   1,   6)
       Mesh   14
       Max CFL number:  0.47E+00 at (   5,   1,   5)
       Max divergence:  0.17E+01 at (   1,   1,   6)
       Min divergence: -0.51E+01 at (   6,   1,   6)
       Max div. error:  0.12E-05 at (   8,   1,   8)
       Max VN number:   0.11E-01 at (   7,   1,   7)
       Mesh   15
       Max CFL number:  0.42E+00 at (   8,   1,   7)
       Max divergence:  0.31E+01 at (   6,   1,   6)
       Min divergence: -0.12E+01 at (   6,   1,   1)
       Max div. error:  0.12E-05 at (   6,   1,   8)
       Max VN number:   0.94E-02 at (   1,   1,   6)
       Mesh   16
       Max CFL number:  0.47E+00 at (   5,   1,   5)
       Max divergence:  0.17E+01 at (   1,   1,   6)
       Min divergence: -0.51E+01 at (   6,   1,   6)
       Max div. error:  0.12E-05 at (   1,   1,   5)
       Max VN number:   0.11E-01 at (   7,   1,   7)
 
       Time Step      20   February 19, 2020  19:29:44
       Step Size:    0.177E-01 s, Total Time:       0.37 s
       Pressure Iterations:      1
       Maximum Velocity Error:  0.11E-15 on Mesh   2 at (   8   1   9)
       Maximum Pressure Error:  0.34E+01 on Mesh   5 at (   7   1   7)
       ScaRC: iterations    52, residual  0.62E-08, convergence rate   0.62E+00
       ---------------------------------------------------------------
       Mesh    1
       Max CFL number:  0.45E+00 at (   8,   1,   1)
       Max divergence:  0.33E+01 at (   1,   1,   7)
       Min divergence: -0.21E+01 at (   7,   1,   7)
       Max div. error:  0.23E-05 at (   8,   1,   8)
       Max VN number:   0.14E-01 at (   1,   1,   7)
       Mesh    2
       Max CFL number:  0.47E+00 at (   8,   1,   8)
       Max divergence:  0.52E+01 at (   7,   1,   7)
       Min divergence: -0.20E+01 at (   1,   1,   7)
       Max div. error:  0.23E-05 at (   7,   1,   1)
       Max VN number:   0.15E-01 at (   7,   1,   7)
       Mesh    3
       Max CFL number:  0.45E+00 at (   8,   1,   1)
       Max divergence:  0.33E+01 at (   7,   1,   1)
       Min divergence: -0.21E+01 at (   7,   1,   7)
       Max div. error:  0.23E-05 at (   4,   1,   1)
       Max VN number:   0.14E-01 at (   1,   1,   7)
       Mesh    4
       Max CFL number:  0.47E+00 at (   8,   1,   8)
       Max divergence:  0.52E+01 at (   7,   1,   7)
       Min divergence: -0.20E+01 at (   1,   1,   7)
       Max div. error:  0.23E-05 at (   8,   1,   6)
       Max VN number:   0.15E-01 at (   7,   1,   7)
       Mesh    5
       Max CFL number:  0.47E+00 at (   8,   1,   8)
       Max divergence:  0.52E+01 at (   7,   1,   7)
       Min divergence: -0.20E+01 at (   7,   1,   1)
       Max div. error:  0.23E-05 at (   1,   1,   7)
       Max VN number:   0.15E-01 at (   7,   1,   7)
       Mesh    6
       Max CFL number:  0.45E+00 at (   1,   1,   8)
       Max divergence:  0.33E+01 at (   1,   1,   7)
       Min divergence: -0.21E+01 at (   7,   1,   7)
       Max div. error:  0.23E-05 at (   1,   1,   1)
       Max VN number:   0.14E-01 at (   7,   1,   1)
       Mesh    7
       Max CFL number:  0.47E+00 at (   8,   1,   8)
       Max divergence:  0.52E+01 at (   7,   1,   7)
       Min divergence: -0.20E+01 at (   7,   1,   1)
       Max div. error:  0.23E-05 at (   1,   1,   1)
       Max VN number:   0.15E-01 at (   7,   1,   7)
       Mesh    8
       Max CFL number:  0.45E+00 at (   1,   1,   8)
       Max divergence:  0.33E+01 at (   7,   1,   1)
       Min divergence: -0.21E+01 at (   7,   1,   7)
       Max div. error:  0.23E-05 at (   6,   1,   1)
       Max VN number:   0.14E-01 at (   7,   1,   1)
       Mesh    9
       Max CFL number:  0.45E+00 at (   1,   1,   8)
       Max divergence:  0.33E+01 at (   1,   1,   7)
       Min divergence: -0.21E+01 at (   7,   1,   7)
       Max div. error:  0.23E-05 at (   1,   1,   4)
       Max VN number:   0.14E-01 at (   7,   1,   1)
       Mesh   10
       Max CFL number:  0.47E+00 at (   8,   1,   8)
       Max divergence:  0.52E+01 at (   7,   1,   7)
       Min divergence: -0.20E+01 at (   1,   1,   7)
       Max div. error:  0.23E-05 at (   1,   1,   1)
       Max VN number:   0.15E-01 at (   7,   1,   7)
       Mesh   11
       Max CFL number:  0.45E+00 at (   1,   1,   8)
       Max divergence:  0.33E+01 at (   1,   1,   7)
       Min divergence: -0.21E+01 at (   7,   1,   7)
       Max div. error:  0.23E-05 at (   1,   1,   5)
       Max VN number:   0.14E-01 at (   1,   1,   7)
       Mesh   12
       Max CFL number:  0.47E+00 at (   8,   1,   8)
       Max divergence:  0.52E+01 at (   7,   1,   7)
       Min divergence: -0.20E+01 at (   7,   1,   1)
       Max div. error:  0.23E-05 at (   8,   1,   4)
       Max VN number:   0.15E-01 at (   7,   1,   7)
       Mesh   13
       Max CFL number:  0.47E+00 at (   8,   1,   8)
       Max divergence:  0.52E+01 at (   7,   1,   7)
       Min divergence: -0.20E+01 at (   7,   1,   1)
       Max div. error:  0.23E-05 at (   6,   1,   8)
       Max VN number:   0.15E-01 at (   7,   1,   7)
       Mesh   14
       Max CFL number:  0.45E+00 at (   8,   1,   1)
       Max divergence:  0.33E+01 at (   1,   1,   7)
       Min divergence: -0.21E+01 at (   7,   1,   7)
       Max div. error:  0.23E-05 at (   1,   1,   6)
       Max VN number:   0.14E-01 at (   1,   1,   7)
       Mesh   15
       Max CFL number:  0.47E+00 at (   8,   1,   8)
       Max divergence:  0.52E+01 at (   7,   1,   7)
       Min divergence: -0.20E+01 at (   1,   1,   7)
       Max div. error:  0.23E-05 at (   4,   1,   8)
       Max VN number:   0.15E-01 at (   7,   1,   7)
       Mesh   16
       Max CFL number:  0.45E+00 at (   8,   1,   1)
       Max divergence:  0.33E+01 at (   1,   1,   7)
       Min divergence: -0.21E+01 at (   7,   1,   7)
       Max div. error:  0.23E-05 at (   3,   1,   8)
       Max VN number:   0.14E-01 at (   7,   1,   1)
 
       Time Step      30   February 19, 2020  19:29:44
       Step Size:    0.197E-01 s, Total Time:       0.57 s
       Pressure Iterations:      1
       Maximum Velocity Error:  0.56E-16 on Mesh   1 at (   5   1   9)
       Maximum Pressure Error:  0.70E+01 on Mesh   7 at (   8   1   8)
       ScaRC: iterations    54, residual  0.71E-08, convergence rate   0.61E+00
       ---------------------------------------------------------------
       Mesh    1
       Max CFL number:  0.44E+00 at (   8,   1,   1)
       Max divergence:  0.10E+01 at (   1,   1,   1)
       Min divergence: -0.31E+01 at (   8,   1,   1)
       Max div. error:  0.63E-06 at (   8,   1,   1)
       Max VN number:   0.21E-01 at (   1,   1,   8)
       Mesh    2
       Max CFL number:  0.44E+00 at (   8,   1,   8)
       Max divergence:  0.10E+01 at (   8,   1,   1)
       Min divergence: -0.42E+01 at (   1,   1,   1)
       Max div. error:  0.63E-06 at (   7,   1,   1)
       Max VN number:   0.21E-01 at (   1,   1,   1)
       Mesh    3
       Max CFL number:  0.44E+00 at (   8,   1,   1)
       Max divergence:  0.10E+01 at (   1,   1,   1)
       Min divergence: -0.31E+01 at (   8,   1,   1)
       Max div. error:  0.63E-06 at (   7,   1,   1)
       Max VN number:   0.21E-01 at (   1,   1,   8)
       Mesh    4
       Max CFL number:  0.44E+00 at (   8,   1,   8)
       Max divergence:  0.10E+01 at (   8,   1,   1)
       Min divergence: -0.42E+01 at (   1,   1,   1)
       Max div. error:  0.63E-06 at (   8,   1,   6)
       Max VN number:   0.21E-01 at (   1,   1,   1)
       Mesh    5
       Max CFL number:  0.44E+00 at (   8,   1,   8)
       Max divergence:  0.10E+01 at (   1,   1,   8)
       Min divergence: -0.42E+01 at (   1,   1,   1)
       Max div. error:  0.63E-06 at (   1,   1,   7)
       Max VN number:   0.21E-01 at (   1,   1,   1)
       Mesh    6
       Max CFL number:  0.44E+00 at (   8,   1,   1)
       Max divergence:  0.10E+01 at (   1,   1,   1)
       Min divergence: -0.31E+01 at (   8,   1,   1)
       Max div. error:  0.63E-06 at (   5,   1,   8)
       Max VN number:   0.21E-01 at (   8,   1,   1)
       Mesh    7
       Max CFL number:  0.44E+00 at (   8,   1,   8)
       Max divergence:  0.10E+01 at (   8,   1,   1)
       Min divergence: -0.42E+01 at (   1,   1,   1)
       Max div. error:  0.63E-06 at (   1,   1,   8)
       Max VN number:   0.21E-01 at (   1,   1,   1)
       Mesh    8
       Max CFL number:  0.44E+00 at (   8,   1,   1)
       Max divergence:  0.10E+01 at (   1,   1,   1)
       Min divergence: -0.31E+01 at (   1,   1,   8)
       Max div. error:  0.63E-06 at (   8,   1,   5)
       Max VN number:   0.21E-01 at (   8,   1,   1)
       Mesh    9
       Max CFL number:  0.44E+00 at (   1,   1,   8)
       Max divergence:  0.10E+01 at (   1,   1,   1)
       Min divergence: -0.31E+01 at (   1,   1,   8)
       Max div. error:  0.63E-06 at (   1,   1,   7)
       Max VN number:   0.21E-01 at (   8,   1,   1)
       Mesh   10
       Max CFL number:  0.44E+00 at (   8,   1,   8)
       Max divergence:  0.10E+01 at (   1,   1,   8)
       Min divergence: -0.42E+01 at (   1,   1,   1)
       Max div. error:  0.63E-06 at (   8,   1,   1)
       Max VN number:   0.21E-01 at (   1,   1,   1)
       Mesh   11
       Max CFL number:  0.44E+00 at (   1,   1,   8)
       Max divergence:  0.10E+01 at (   1,   1,   1)
       Min divergence: -0.31E+01 at (   8,   1,   1)
       Max div. error:  0.63E-06 at (   1,   1,   8)
       Max VN number:   0.21E-01 at (   1,   1,   8)
       Mesh   12
       Max CFL number:  0.44E+00 at (   8,   1,   8)
       Max divergence:  0.10E+01 at (   8,   1,   1)
       Min divergence: -0.42E+01 at (   1,   1,   1)
       Max div. error:  0.63E-06 at (   4,   1,   1)
       Max VN number:   0.21E-01 at (   1,   1,   1)
       Mesh   13
       Max CFL number:  0.44E+00 at (   8,   1,   8)
       Max divergence:  0.10E+01 at (   1,   1,   8)
       Min divergence: -0.42E+01 at (   1,   1,   1)
       Max div. error:  0.63E-06 at (   6,   1,   8)
       Max VN number:   0.21E-01 at (   1,   1,   1)
       Mesh   14
       Max CFL number:  0.44E+00 at (   1,   1,   8)
       Max divergence:  0.10E+01 at (   1,   1,   1)
       Min divergence: -0.31E+01 at (   8,   1,   1)
       Max div. error:  0.63E-06 at (   5,   1,   8)
       Max VN number:   0.21E-01 at (   1,   1,   8)
       Mesh   15
       Max CFL number:  0.44E+00 at (   8,   1,   8)
       Max divergence:  0.10E+01 at (   1,   1,   8)
       Min divergence: -0.42E+01 at (   1,   1,   1)
       Max div. error:  0.63E-06 at (   1,   1,   4)
       Max VN number:   0.21E-01 at (   1,   1,   1)
       Mesh   16
       Max CFL number:  0.44E+00 at (   8,   1,   1)
       Max divergence:  0.10E+01 at (   1,   1,   1)
       Min divergence: -0.31E+01 at (   8,   1,   1)
       Max div. error:  0.63E-06 at (   8,   1,   3)
       Max VN number:   0.21E-01 at (   8,   1,   1)
 
       Time Step      40   February 19, 2020  19:29:44
       Step Size:    0.177E-01 s, Total Time:       0.74 s
       Pressure Iterations:      1
       Maximum Velocity Error:  0.11E-15 on Mesh   3 at (   8   1   0)
       Maximum Pressure Error:  0.15E+01 on Mesh   7 at (   2   1   2)
       ScaRC: iterations    54, residual  0.74E-08, convergence rate   0.61E+00
       ---------------------------------------------------------------
       Mesh    1
       Max CFL number:  0.44E+00 at (   4,   1,   4)
       Max divergence:  0.40E+01 at (   2,   1,   2)
       Min divergence: -0.23E+01 at (   8,   1,   2)
       Max div. error:  0.27E-05 at (   1,   1,   8)
       Max VN number:   0.88E-02 at (   4,   1,   8)
       Mesh    2
       Max CFL number:  0.45E+00 at (   1,   1,   1)
       Max divergence:  0.23E+01 at (   8,   1,   2)
       Min divergence: -0.41E+01 at (   2,   1,   2)
       Max div. error:  0.27E-05 at (   7,   1,   1)
       Max VN number:   0.88E-02 at (   4,   1,   4)
       Mesh    3
       Max CFL number:  0.44E+00 at (   4,   1,   4)
       Max divergence:  0.40E+01 at (   2,   1,   2)
       Min divergence: -0.23E+01 at (   8,   1,   2)
       Max div. error:  0.27E-05 at (   7,   1,   1)
       Max VN number:   0.88E-02 at (   8,   1,   4)
       Mesh    4
       Max CFL number:  0.45E+00 at (   1,   1,   1)
       Max divergence:  0.23E+01 at (   2,   1,   8)
       Min divergence: -0.41E+01 at (   2,   1,   2)
       Max div. error:  0.27E-05 at (   8,   1,   6)
       Max VN number:   0.88E-02 at (   4,   1,   4)
       Mesh    5
       Max CFL number:  0.45E+00 at (   1,   1,   1)
       Max divergence:  0.23E+01 at (   2,   1,   8)
       Min divergence: -0.41E+01 at (   2,   1,   2)
       Max div. error:  0.27E-05 at (   1,   1,   7)
       Max VN number:   0.88E-02 at (   4,   1,   4)
       Mesh    6
       Max CFL number:  0.44E+00 at (   4,   1,   4)
       Max divergence:  0.40E+01 at (   2,   1,   2)
       Min divergence: -0.23E+01 at (   2,   1,   8)
       Max div. error:  0.27E-05 at (   6,   1,   8)
       Max VN number:   0.88E-02 at (   4,   1,   8)
       Mesh    7
       Max CFL number:  0.45E+00 at (   1,   1,   1)
       Max divergence:  0.23E+01 at (   8,   1,   2)
       Min divergence: -0.41E+01 at (   2,   1,   2)
       Max div. error:  0.27E-05 at (   8,   1,   1)
       Max VN number:   0.88E-02 at (   4,   1,   4)
       Mesh    8
       Max CFL number:  0.44E+00 at (   4,   1,   4)
       Max divergence:  0.40E+01 at (   2,   1,   2)
       Min divergence: -0.23E+01 at (   2,   1,   8)
       Max div. error:  0.27E-05 at (   8,   1,   5)
       Max VN number:   0.88E-02 at (   8,   1,   4)
       Mesh    9
       Max CFL number:  0.44E+00 at (   4,   1,   4)
       Max divergence:  0.40E+01 at (   2,   1,   2)
       Min divergence: -0.23E+01 at (   2,   1,   8)
       Max div. error:  0.27E-05 at (   1,   1,   7)
       Max VN number:   0.88E-02 at (   4,   1,   8)
       Mesh   10
       Max CFL number:  0.45E+00 at (   1,   1,   1)
       Max divergence:  0.23E+01 at (   2,   1,   8)
       Min divergence: -0.41E+01 at (   2,   1,   2)
       Max div. error:  0.27E-05 at (   1,   1,   8)
       Max VN number:   0.88E-02 at (   4,   1,   4)
       Mesh   11
       Max CFL number:  0.44E+00 at (   4,   1,   4)
       Max divergence:  0.40E+01 at (   2,   1,   2)
       Min divergence: -0.23E+01 at (   2,   1,   8)
       Max div. error:  0.27E-05 at (   8,   1,   1)
       Max VN number:   0.88E-02 at (   4,   1,   8)
       Mesh   12
       Max CFL number:  0.45E+00 at (   1,   1,   1)
       Max divergence:  0.23E+01 at (   8,   1,   2)
       Min divergence: -0.41E+01 at (   2,   1,   2)
       Max div. error:  0.27E-05 at (   4,   1,   1)
       Max VN number:   0.88E-02 at (   4,   1,   4)
       Mesh   13
       Max CFL number:  0.45E+00 at (   1,   1,   1)
       Max divergence:  0.23E+01 at (   8,   1,   2)
       Min divergence: -0.41E+01 at (   2,   1,   2)
       Max div. error:  0.27E-05 at (   6,   1,   8)
       Max VN number:   0.88E-02 at (   4,   1,   4)
       Mesh   14
       Max CFL number:  0.44E+00 at (   4,   1,   4)
       Max divergence:  0.40E+01 at (   2,   1,   2)
       Min divergence: -0.23E+01 at (   8,   1,   2)
       Max div. error:  0.27E-05 at (   5,   1,   8)
       Max VN number:   0.88E-02 at (   4,   1,   8)
       Mesh   15
       Max CFL number:  0.45E+00 at (   1,   1,   1)
       Max divergence:  0.23E+01 at (   2,   1,   8)
       Min divergence: -0.41E+01 at (   2,   1,   2)
       Max div. error:  0.27E-05 at (   1,   1,   4)
       Max VN number:   0.88E-02 at (   4,   1,   4)
       Mesh   16
       Max CFL number:  0.44E+00 at (   4,   1,   4)
       Max divergence:  0.40E+01 at (   2,   1,   2)
       Min divergence: -0.23E+01 at (   8,   1,   2)
       Max div. error:  0.27E-05 at (   3,   1,   8)
       Max VN number:   0.88E-02 at (   4,   1,   8)
 
       Time Step      50   February 19, 2020  19:29:44
       Step Size:    0.177E-01 s, Total Time:       0.92 s
       Pressure Iterations:      1
       Maximum Velocity Error:  0.11E-15 on Mesh   1 at (   9   1   3)
       Maximum Pressure Error:  0.43E+01 on Mesh   6 at (   4   1   4)
       ScaRC: iterations    51, residual  0.90E-08, convergence rate   0.62E+00
       ---------------------------------------------------------------
       Mesh    1
       Max CFL number:  0.42E+00 at (   4,   1,   4)
       Max divergence:  0.48E+01 at (   4,   1,   4)
       Min divergence: -0.64E+00 at (   8,   1,   4)
       Max div. error:  0.99E-07 at (   1,   1,   1)
       Max VN number:   0.20E-01 at (   4,   1,   4)
       Mesh    2
       Max CFL number:  0.35E+00 at (   2,   1,   2)
       Max divergence: -0.88E-02 at (   8,   1,   8)
       Min divergence: -0.13E+01 at (   4,   1,   4)
       Max div. error:  0.99E-07 at (   2,   1,   1)
       Max VN number:   0.88E-02 at (   4,   1,   8)
       Mesh    3
       Max CFL number:  0.42E+00 at (   4,   1,   4)
       Max divergence:  0.48E+01 at (   4,   1,   4)
       Min divergence: -0.64E+00 at (   4,   1,   8)
       Max div. error:  0.99E-07 at (   1,   1,   1)
       Max VN number:   0.20E-01 at (   4,   1,   4)
       Mesh    4
       Max CFL number:  0.35E+00 at (   2,   1,   2)
       Max divergence: -0.88E-02 at (   8,   1,   8)
       Min divergence: -0.13E+01 at (   4,   1,   4)
       Max div. error:  0.99E-07 at (   5,   1,   1)
       Max VN number:   0.88E-02 at (   4,   1,   8)
       Mesh    5
       Max CFL number:  0.35E+00 at (   2,   1,   2)
       Max divergence: -0.88E-02 at (   8,   1,   8)
       Min divergence: -0.13E+01 at (   4,   1,   4)
       Max div. error:  0.99E-07 at (   1,   1,   2)
       Max VN number:   0.88E-02 at (   8,   1,   4)
       Mesh    6
       Max CFL number:  0.42E+00 at (   4,   1,   4)
       Max divergence:  0.48E+01 at (   4,   1,   4)
       Min divergence: -0.64E+00 at (   4,   1,   8)
       Max div. error:  0.99E-07 at (   8,   1,   8)
       Max VN number:   0.20E-01 at (   4,   1,   4)
       Mesh    7
       Max CFL number:  0.35E+00 at (   2,   1,   2)
       Max divergence: -0.88E-02 at (   8,   1,   8)
       Min divergence: -0.13E+01 at (   4,   1,   4)
       Max div. error:  0.99E-07 at (   8,   1,   3)
       Max VN number:   0.88E-02 at (   4,   1,   8)
       Mesh    8
       Max CFL number:  0.42E+00 at (   4,   1,   4)
       Max divergence:  0.48E+01 at (   4,   1,   4)
       Min divergence: -0.64E+00 at (   8,   1,   4)
       Max div. error:  0.99E-07 at (   8,   1,   5)
       Max VN number:   0.20E-01 at (   4,   1,   4)
       Mesh    9
       Max CFL number:  0.42E+00 at (   4,   1,   4)
       Max divergence:  0.48E+01 at (   4,   1,   4)
       Min divergence: -0.64E+00 at (   8,   1,   4)
       Max div. error:  0.99E-07 at (   1,   1,   1)
       Max VN number:   0.20E-01 at (   4,   1,   4)
       Mesh   10
       Max CFL number:  0.35E+00 at (   2,   1,   2)
       Max divergence: -0.88E-02 at (   8,   1,   8)
       Min divergence: -0.13E+01 at (   4,   1,   4)
       Max div. error:  0.99E-07 at (   3,   1,   8)
       Max VN number:   0.88E-02 at (   8,   1,   4)
       Mesh   11
       Max CFL number:  0.42E+00 at (   4,   1,   4)
       Max divergence:  0.48E+01 at (   4,   1,   4)
       Min divergence: -0.64E+00 at (   8,   1,   4)
       Max div. error:  0.99E-07 at (   1,   1,   1)
       Max VN number:   0.20E-01 at (   4,   1,   4)
       Mesh   12
       Max CFL number:  0.35E+00 at (   2,   1,   2)
       Max divergence: -0.88E-02 at (   8,   1,   8)
       Min divergence: -0.13E+01 at (   4,   1,   4)
       Max div. error:  0.99E-07 at (   8,   1,   6)
       Max VN number:   0.88E-02 at (   4,   1,   8)
       Mesh   13
       Max CFL number:  0.35E+00 at (   2,   1,   2)
       Max divergence: -0.88E-02 at (   8,   1,   8)
       Min divergence: -0.13E+01 at (   4,   1,   4)
       Max div. error:  0.99E-07 at (   1,   1,   5)
       Max VN number:   0.88E-02 at (   8,   1,   4)
       Mesh   14
       Max CFL number:  0.42E+00 at (   4,   1,   4)
       Max divergence:  0.48E+01 at (   4,   1,   4)
       Min divergence: -0.64E+00 at (   4,   1,   8)
       Max div. error:  0.99E-07 at (   5,   1,   8)
       Max VN number:   0.20E-01 at (   4,   1,   4)
       Mesh   15
       Max CFL number:  0.35E+00 at (   2,   1,   2)
       Max divergence: -0.88E-02 at (   8,   1,   8)
       Min divergence: -0.13E+01 at (   4,   1,   4)
       Max div. error:  0.99E-07 at (   6,   1,   8)
       Max VN number:   0.88E-02 at (   8,   1,   4)
       Mesh   16
       Max CFL number:  0.42E+00 at (   4,   1,   4)
       Max divergence:  0.48E+01 at (   4,   1,   4)
       Min divergence: -0.64E+00 at (   8,   1,   4)
       Max div. error:  0.99E-07 at (   1,   1,   6)
       Max VN number:   0.20E-01 at (   4,   1,   4)
 
       Time Step      55   February 19, 2020  19:29:45
       Step Size:    0.728E-03 s, Total Time:       1.00 s
       Pressure Iterations:      1
       Maximum Velocity Error:  0.56E-16 on Mesh   1 at (   0   1   6)
       Maximum Pressure Error:  0.46E+00 on Mesh   3 at (   4   1   4)
       ScaRC: iterations    53, residual  0.41E-08, convergence rate   0.61E+00
       ---------------------------------------------------------------
       Mesh    1
       Max CFL number:  0.12E-01 at (   5,   1,   3)
       Max divergence:  0.51E-01 at (   5,   1,   5)
       Min divergence: -0.24E-01 at (   3,   1,   6)
       Max div. error:  0.53E-06 at (   1,   1,   1)
       Max VN number:   0.94E-03 at (   4,   1,   4)
       Mesh    2
       Max CFL number:  0.12E-01 at (   3,   1,   3)
       Max divergence:  0.33E-02 at (   3,   1,   3)
       Min divergence: -0.30E-02 at (   2,   1,   5)
       Max div. error:  0.53E-06 at (   2,   1,   1)
       Max VN number:   0.34E-03 at (   8,   1,   8)
       Mesh    3
       Max CFL number:  0.12E-01 at (   3,   1,   5)
       Max divergence:  0.51E-01 at (   5,   1,   5)
       Min divergence: -0.24E-01 at (   3,   1,   6)
       Max div. error:  0.53E-06 at (   1,   1,   1)
       Max VN number:   0.94E-03 at (   4,   1,   4)
       Mesh    4
       Max CFL number:  0.12E-01 at (   3,   1,   3)
       Max divergence:  0.33E-02 at (   3,   1,   3)
       Min divergence: -0.30E-02 at (   5,   1,   2)
       Max div. error:  0.53E-06 at (   8,   1,   6)
       Max VN number:   0.34E-03 at (   8,   1,   8)
       Mesh    5
       Max CFL number:  0.12E-01 at (   3,   1,   3)
       Max divergence:  0.33E-02 at (   3,   1,   3)
       Min divergence: -0.30E-02 at (   5,   1,   2)
       Max div. error:  0.53E-06 at (   1,   1,   2)
       Max VN number:   0.34E-03 at (   8,   1,   8)
       Mesh    6
       Max CFL number:  0.12E-01 at (   3,   1,   5)
       Max divergence:  0.51E-01 at (   5,   1,   5)
       Min divergence: -0.24E-01 at (   6,   1,   3)
       Max div. error:  0.53E-06 at (   3,   1,   8)
       Max VN number:   0.94E-03 at (   4,   1,   4)
       Mesh    7
       Max CFL number:  0.12E-01 at (   3,   1,   3)
       Max divergence:  0.33E-02 at (   3,   1,   3)
       Min divergence: -0.30E-02 at (   2,   1,   5)
       Max div. error:  0.53E-06 at (   4,   1,   8)
       Max VN number:   0.34E-03 at (   8,   1,   8)
       Mesh    8
       Max CFL number:  0.12E-01 at (   5,   1,   3)
       Max divergence:  0.51E-01 at (   5,   1,   5)
       Min divergence: -0.24E-01 at (   3,   1,   6)
       Max div. error:  0.53E-06 at (   8,   1,   8)
       Max VN number:   0.94E-03 at (   4,   1,   4)
       Mesh    9
       Max CFL number:  0.12E-01 at (   5,   1,   3)
       Max divergence:  0.51E-01 at (   5,   1,   5)
       Min divergence: -0.24E-01 at (   6,   1,   3)
       Max div. error:  0.53E-06 at (   1,   1,   1)
       Max VN number:   0.94E-03 at (   4,   1,   4)
       Mesh   10
       Max CFL number:  0.12E-01 at (   3,   1,   3)
       Max divergence:  0.33E-02 at (   3,   1,   3)
       Min divergence: -0.30E-02 at (   5,   1,   2)
       Max div. error:  0.53E-06 at (   8,   1,   4)
       Max VN number:   0.34E-03 at (   8,   1,   8)
       Mesh   11
       Max CFL number:  0.12E-01 at (   3,   1,   5)
       Max divergence:  0.51E-01 at (   5,   1,   5)
       Min divergence: -0.24E-01 at (   3,   1,   6)
       Max div. error:  0.53E-06 at (   1,   1,   8)
       Max VN number:   0.94E-03 at (   4,   1,   4)
       Mesh   12
       Max CFL number:  0.12E-01 at (   3,   1,   3)
       Max divergence:  0.33E-02 at (   3,   1,   3)
       Min divergence: -0.30E-02 at (   5,   1,   2)
       Max div. error:  0.53E-06 at (   7,   1,   1)
       Max VN number:   0.34E-03 at (   8,   1,   8)
       Mesh   13
       Max CFL number:  0.12E-01 at (   3,   1,   3)
       Max divergence:  0.33E-02 at (   3,   1,   3)
       Min divergence: -0.30E-02 at (   2,   1,   5)
       Max div. error:  0.53E-06 at (   6,   1,   8)
       Max VN number:   0.34E-03 at (   8,   1,   8)
       Mesh   14
       Max CFL number:  0.12E-01 at (   3,   1,   5)
       Max divergence:  0.51E-01 at (   5,   1,   5)
       Min divergence: -0.24E-01 at (   6,   1,   3)
       Max div. error:  0.53E-06 at (   5,   1,   8)
       Max VN number:   0.94E-03 at (   4,   1,   4)
       Mesh   15
       Max CFL number:  0.12E-01 at (   3,   1,   3)
       Max divergence:  0.33E-02 at (   3,   1,   3)
       Min divergence: -0.30E-02 at (   2,   1,   5)
       Max div. error:  0.53E-06 at (   1,   1,   7)
       Max VN number:   0.34E-03 at (   8,   1,   8)
       Mesh   16
       Max CFL number:  0.12E-01 at (   5,   1,   3)
       Max divergence:  0.51E-01 at (   5,   1,   5)
       Min divergence: -0.24E-01 at (   6,   1,   3)
       Max div. error:  0.53E-06 at (   8,   1,   5)
       Max VN number:   0.94E-03 at (   4,   1,   4)
 


 Time Stepping Wall Clock Time (s):        0.512
 Total Elapsed Wall Clock Time (s):        0.789

STOP: FDS completed successfully (CHID: shunn3_16mesh_32_scarc)
