
 Fire Dynamics Simulator

 Current Date     : February 19, 2020  19:29:44
 Revision         : -master
 Revision Date    : Wed Feb 19 18:38:00 2020 +0100
 Compiler         : Intel ifort 18.0.1
 Compilation Date : Feb 19, 2020 18:48:59

 MPI Enabled;    Number of MPI Processes:       4
 OpenMP Enabled; Number of OpenMP Threads:      4

 MPI version: 3.1
 MPI library version: Intel(R) MPI Library 2018 Update 1 for Linux* OS


 Job TITLE        : Shunn et al. (2012) JCP, Problem 3, FLUX_LIMITER=CHARM
 Job ID string    : shunn3_4mesh_256_scarc


 Grid Dimensions, Mesh     1

   Cells in the X Direction           128
   Cells in the Y Direction             1
   Cells in the Z Direction           128
   Number of Grid Cells             16384


 Physical Dimensions, Mesh     1

   Length (m)                       1.000
   Width  (m)                       0.100
   Height (m)                       1.000
   Initial Time Step (s)            0.004

 Grid Dimensions, Mesh     2

   Cells in the X Direction           128
   Cells in the Y Direction             1
   Cells in the Z Direction           128
   Number of Grid Cells             16384


 Physical Dimensions, Mesh     2

   Length (m)                       1.000
   Width  (m)                       0.100
   Height (m)                       1.000
   Initial Time Step (s)            0.004

 Grid Dimensions, Mesh     3

   Cells in the X Direction           128
   Cells in the Y Direction             1
   Cells in the Z Direction           128
   Number of Grid Cells             16384


 Physical Dimensions, Mesh     3

   Length (m)                       1.000
   Width  (m)                       0.100
   Height (m)                       1.000
   Initial Time Step (s)            0.004

 Grid Dimensions, Mesh     4

   Cells in the X Direction           128
   Cells in the Y Direction             1
   Cells in the Z Direction           128
   Number of Grid Cells             16384


 Physical Dimensions, Mesh     4

   Length (m)                       1.000
   Width  (m)                       0.100
   Height (m)                       1.000
   Initial Time Step (s)            0.004

Total Number of Grid Cells         65536


 Miscellaneous Parameters

   Simulation Start Time (s)          0.0
   Simulation End Time (s)            1.0
   Ambient Temperature (C):         20.00


 Mass Fraction Transformation Matrix to Convert Species Mixtures (Columns) to Primitive Species (Rows)

                         BACKGROU  SCALAR  
   BACKGROUND            1.000000  0.000000
   SCALAR                0.000000  1.000000


 Primitive Species Information

   BACKGROUND
   Gas Species
   Molecular Weight (g/mol)            50.00000
   Ambient Density (kg/m^3)            5.000
   Enthalpy of Formation (J/kg)        2.98E+05

   SCALAR
   Gas Species
   Molecular Weight (g/mol)            10.00000
   Ambient Density (kg/m^3)            1.000
   Enthalpy of Formation (J/kg)        2.98E+05


 Tracked (Lumped) Species Information

   BACKGROUND
   Molecular Weight (g/mol)            50.00000
   Ambient Density (kg/m^3)            5.000
   Initial Mass Fraction               1.000
   Enthalpy of Formation (J/kg)      2.98E+05

   Sub Species                    Mass Fraction     Mole Fraction
   BACKGROUND                     1.000000E+00      1.000000E+00
 
     Viscosity (kg/m/s) Ambient,  293 K:  1.00E-03
                                  500 K:  1.00E-03
                                 1000 K:  1.00E-03
                                 1500 K:  1.00E-03
   Therm. Cond. (W/m/K) Ambient,  293 K:  1.41E+00
                                  500 K:  1.41E+00
                                 1000 K:  1.41E+00
                                 1500 K:  1.41E+00
        Enthalpy (J/kg) Ambient,  293 K:  2.93E+05
                                  500 K:  5.00E+05
                                 1000 K:  1.00E+06
                                 1500 K:  1.50E+06
    Spec. Heat (J/kg/K) Ambient,  293 K:  1.00E+03
                                  500 K:  1.00E+03
                                 1000 K:  1.00E+03
                                 1500 K:  1.00E+03
   Diff. Coeff. (m^2/s) Ambient,  293 K:  1.49E-05
                                  500 K:  3.69E-05
                                 1000 K:  1.17E-04
                                 1500 K:  2.30E-04

   SCALAR
   Molecular Weight (g/mol)            10.00000
   Ambient Density (kg/m^3)            1.000
   Initial Mass Fraction               0.000
   Enthalpy of Formation (J/kg)      2.98E+05

   Sub Species                    Mass Fraction     Mole Fraction
   SCALAR                         1.000000E+00      1.000000E+00
 
     Viscosity (kg/m/s) Ambient,  293 K:  1.00E-03
                                  500 K:  1.00E-03
                                 1000 K:  1.00E-03
                                 1500 K:  1.00E-03
   Therm. Cond. (W/m/K) Ambient,  293 K:  1.41E+00
                                  500 K:  1.41E+00
                                 1000 K:  1.41E+00
                                 1500 K:  1.41E+00
        Enthalpy (J/kg) Ambient,  293 K:  2.93E+05
                                  500 K:  5.00E+05
                                 1000 K:  1.00E+06
                                 1500 K:  1.50E+06
    Spec. Heat (J/kg/K) Ambient,  293 K:  1.00E+03
                                  500 K:  1.00E+03
                                 1000 K:  1.00E+03
                                 1500 K:  1.00E+03
   Diff. Coeff. (m^2/s) Ambient,  293 K:  2.57E-05
                                  500 K:  6.40E-05
                                 1000 K:  2.03E-04
                                 1500 K:  3.98E-04


 Material Information


 Surface Conditions

   0 INERT (DEFAULT)

   1 OPEN
     Passive Vent to Atmosphere

   2 MIRROR
     Symmetry Plane

   3 INTERPOLATED

   4 PERIODIC

   5 HVAC

   6 MASSLESS TRACER

   7 DROPLET

   8 EVACUATION_OUTFLOW
     Normal Velocity (m/s)         0.000

   9 MASSLESS TARGET

  10 PERIODIC WIND

  11 SLICE


 Device Coordinates

     1 Coords:     -0.000078      0.000000     -0.000078, Make: null, ID: scarc-iter, Quantity: SCARC ITERATIONS
     2 Coords:     -0.000078      0.000000     -0.000078, Make: null, ID: scarc-rate, Quantity: SCARC CONVERGENCE RATE
     3 Coords:     -0.000078      0.000000     -0.000078, Make: null, ID: scarc-res, Quantity: SCARC RESIDUAL


 Slice File Information, Mesh     1

   Sampling Interval (s)             0.001

   1 Nodes:   0 128   1   1   0 128, Quantity: VELOCITY
   2 Nodes:   0 128   1   1   0 128, Quantity: U-VELOCITY
   3 Nodes:   0 128   1   1   0 128, Quantity: W-VELOCITY
   4 Nodes:   0 128   1   1   0 128, Quantity: DENSITY
   5 Nodes:   0 128   1   1   0 128, Quantity: DIVERGENCE
   6 Nodes:   0 128   1   1   0 128, Quantity: SCALAR MASS FRACTION
   7 Nodes:   0 128   1   1   0 128, Quantity: TEMPERATURE
   8 Nodes:   0 128   1   1   0 128, Quantity: H
   9 Nodes:   0 128   1   1   0 128, Quantity: PRESSURE
  10 Nodes:   0 128   1   1   0 128, Quantity: VISCOSITY


 SCARC Information

   Discretization        STRUCTURED
   Global solver             KRYLOV
   Storage technique        COMPACT
   Preconditioner           PARDISO
   Max iterations              1000
   Stopping accuracy       0.10E-07
 
 

 Run Time Diagnostics

       Time Step       1   February 19, 2020  19:29:46
       Step Size:    0.346E-02 s, Total Time:      0.003 s
       Pressure Iterations:      1
       Maximum Velocity Error:  0.56E-16 on Mesh   1 at (   0   1 105)
       Maximum Pressure Error:  0.14E+01 on Mesh   4 at (  27   1  28)
       ScaRC: iterations   121, residual  0.58E-08, convergence rate   0.81E+00
       ---------------------------------------------------------------
       Mesh    1
       Max CFL number:  0.45E+00 at (  23,   1,  23)
       Max divergence:  0.55E-01 at (  32,   1,  96)
       Min divergence: -0.29E+00 at (  96,   1,  96)
       Max VN number:   0.32E+00 at (  97,   1,  97)
       Mesh    2
       Max CFL number:  0.45E+00 at (  23,   1,  23)
       Max divergence:  0.55E-01 at (  32,   1,  96)
       Min divergence: -0.29E+00 at (  32,   1,  32)
       Max VN number:   0.32E+00 at (  97,   1,  97)
       Mesh    3
       Max CFL number:  0.45E+00 at (  23,   1,  23)
       Max divergence:  0.55E-01 at (  32,   1,  96)
       Min divergence: -0.29E+00 at (  32,   1,  32)
       Max VN number:   0.32E+00 at (  97,   1,  97)
       Mesh    4
       Max CFL number:  0.45E+00 at (  23,   1,  23)
       Max divergence:  0.55E-01 at (  32,   1,  96)
       Min divergence: -0.29E+00 at (  32,   1,  32)
       Max VN number:   0.32E+00 at (  97,   1,  97)
 
       Time Step       2   February 19, 2020  19:29:47
       Step Size:    0.346E-02 s, Total Time:      0.007 s
       Pressure Iterations:      1
       Maximum Velocity Error:  0.56E-16 on Mesh   1 at (   0   1  67)
       Maximum Pressure Error:  0.12E+01 on Mesh   2 at (  92   1  92)
       ScaRC: iterations   118, residual  0.84E-08, convergence rate   0.81E+00
       ---------------------------------------------------------------
       Mesh    1
       Max CFL number:  0.45E+00 at (  23,   1,  24)
       Max divergence:  0.11E+00 at (  32,   1,  96)
       Min divergence: -0.57E+00 at (  96,   1,  96)
       Max VN number:   0.32E+00 at (  97,   1,  97)
       Mesh    2
       Max CFL number:  0.45E+00 at (  23,   1,  24)
       Max divergence:  0.11E+00 at (  32,   1,  96)
       Min divergence: -0.57E+00 at (  32,   1,  32)
       Max VN number:   0.32E+00 at (  97,   1,  97)
       Mesh    3
       Max CFL number:  0.45E+00 at (  23,   1,  24)
       Max divergence:  0.11E+00 at (  96,   1,  32)
       Min divergence: -0.57E+00 at (  32,   1,  32)
       Max VN number:   0.32E+00 at (  97,   1,  97)
       Mesh    4
       Max CFL number:  0.45E+00 at (  23,   1,  24)
       Max divergence:  0.11E+00 at (  96,   1,  32)
       Min divergence: -0.57E+00 at (  96,   1,  96)
       Max VN number:   0.32E+00 at (  97,   1,  97)
 
       Time Step       3   February 19, 2020  19:29:49
       Step Size:    0.346E-02 s, Total Time:       0.01 s
       Pressure Iterations:      1
       Maximum Velocity Error:  0.56E-16 on Mesh   1 at (   0   1  83)
       Maximum Pressure Error:  0.13E+01 on Mesh   1 at (  92   1  92)
       ScaRC: iterations   118, residual  0.76E-08, convergence rate   0.81E+00
       ---------------------------------------------------------------
       Mesh    1
       Max CFL number:  0.46E+00 at (  24,   1,  24)
       Max divergence:  0.17E+00 at (  32,   1,  96)
       Min divergence: -0.84E+00 at (  32,   1,  32)
       Max VN number:   0.32E+00 at (  97,   1,  97)
       Mesh    2
       Max CFL number:  0.46E+00 at (  24,   1,  24)
       Max divergence:  0.17E+00 at (  96,   1,  32)
       Min divergence: -0.84E+00 at (  32,   1,  32)
       Max VN number:   0.32E+00 at (  97,   1,  97)
       Mesh    3
       Max CFL number:  0.46E+00 at (  24,   1,  24)
       Max divergence:  0.17E+00 at (  32,   1,  96)
       Min divergence: -0.84E+00 at (  32,   1,  32)
       Max VN number:   0.32E+00 at (  97,   1,  97)
       Mesh    4
       Max CFL number:  0.46E+00 at (  24,   1,  24)
       Max divergence:  0.17E+00 at (  96,   1,  32)
       Min divergence: -0.84E+00 at (  96,   1,  96)
       Max VN number:   0.32E+00 at (  97,   1,  97)
 
       Time Step       4   February 19, 2020  19:29:50
       Step Size:    0.346E-02 s, Total Time:       0.01 s
       Pressure Iterations:      1
       Maximum Velocity Error:  0.56E-16 on Mesh   1 at (   0   1  84)
       Maximum Pressure Error:  0.13E+01 on Mesh   4 at (  93   1  93)
       ScaRC: iterations   121, residual  0.99E-08, convergence rate   0.81E+00
       ---------------------------------------------------------------
       Mesh    1
       Max CFL number:  0.47E+00 at (  24,   1,  24)
       Max divergence:  0.22E+00 at (  32,   1,  96)
       Min divergence: -0.11E+01 at (  32,   1,  32)
       Max VN number:   0.32E+00 at (  97,   1,  97)
       Mesh    2
       Max CFL number:  0.47E+00 at (  24,   1,  24)
       Max divergence:  0.22E+00 at (  32,   1,  96)
       Min divergence: -0.11E+01 at (  32,   1,  32)
       Max VN number:   0.32E+00 at (  97,   1,  97)
       Mesh    3
       Max CFL number:  0.47E+00 at (  24,   1,  24)
       Max divergence:  0.22E+00 at (  32,   1,  96)
       Min divergence: -0.11E+01 at (  32,   1,  32)
       Max VN number:   0.32E+00 at (  97,   1,  97)
       Mesh    4
       Max CFL number:  0.47E+00 at (  24,   1,  24)
       Max divergence:  0.22E+00 at (  96,   1,  32)
       Min divergence: -0.11E+01 at (  96,   1,  96)
       Max VN number:   0.32E+00 at (  97,   1,  97)
 
       Time Step       5   February 19, 2020  19:29:51
       Step Size:    0.346E-02 s, Total Time:       0.02 s
       Pressure Iterations:      1
       Maximum Velocity Error:  0.56E-16 on Mesh   1 at (   0   1  71)
       Maximum Pressure Error:  0.14E+01 on Mesh   2 at (  92   1  96)
       ScaRC: iterations   122, residual  0.98E-08, convergence rate   0.81E+00
       ---------------------------------------------------------------
       Mesh    1
       Max CFL number:  0.47E+00 at (  24,   1,  24)
       Max divergence:  0.27E+00 at (  32,   1,  96)
       Min divergence: -0.13E+01 at (  99,   1,  99)
       Max VN number:   0.31E+00 at (  98,   1,  98)
       Mesh    2
       Max CFL number:  0.47E+00 at (  24,   1,  24)
       Max divergence:  0.27E+00 at (  32,   1,  96)
       Min divergence: -0.13E+01 at (  35,   1,  35)
       Max VN number:   0.31E+00 at (  34,   1,  34)
       Mesh    3
       Max CFL number:  0.47E+00 at (  24,   1,  24)
       Max divergence:  0.27E+00 at (  32,   1,  96)
       Min divergence: -0.13E+01 at (  35,   1,  35)
       Max VN number:   0.31E+00 at (  98,   1,  98)
       Mesh    4
       Max CFL number:  0.47E+00 at (  24,   1,  24)
       Max divergence:  0.27E+00 at (  96,   1,  32)
       Min divergence: -0.13E+01 at (  35,   1,  35)
       Max VN number:   0.31E+00 at (  34,   1,  34)
 
       Time Step       6   February 19, 2020  19:29:53
       Step Size:    0.346E-02 s, Total Time:       0.02 s
       Pressure Iterations:      1
       Maximum Velocity Error:  0.56E-16 on Mesh   1 at (   0   1  67)
       Maximum Pressure Error:  0.14E+01 on Mesh   3 at (  32   1  29)
       ScaRC: iterations   123, residual  0.65E-08, convergence rate   0.81E+00
       ---------------------------------------------------------------
       Mesh    1
       Max CFL number:  0.48E+00 at (  24,   1,  24)
       Max divergence:  0.33E+00 at (  96,   1,  32)
       Min divergence: -0.16E+01 at (  33,   1,  33)
       Max VN number:   0.31E+00 at (  34,   1,  34)
       Mesh    2
       Max CFL number:  0.48E+00 at (  24,   1,  24)
       Max divergence:  0.33E+00 at (  32,   1,  96)
       Min divergence: -0.16E+01 at (  97,   1,  97)
       Max VN number:   0.31E+00 at (  34,   1,  34)
       Mesh    3
       Max CFL number:  0.48E+00 at (  24,   1,  24)
       Max divergence:  0.33E+00 at (  32,   1,  96)
       Min divergence: -0.16E+01 at (  33,   1,  33)
       Max VN number:   0.31E+00 at (  98,   1,  98)
       Mesh    4
       Max CFL number:  0.48E+00 at (  24,   1,  24)
       Max divergence:  0.33E+00 at (  96,   1,  32)
       Min divergence: -0.16E+01 at (  33,   1,  33)
       Max VN number:   0.31E+00 at (  98,   1,  98)
 
       Time Step       7   February 19, 2020  19:29:54
       Step Size:    0.346E-02 s, Total Time:       0.02 s
       Pressure Iterations:      1
       Maximum Velocity Error:  0.11E-15 on Mesh   1 at (   0   1   2)
       Maximum Pressure Error:  0.14E+01 on Mesh   1 at (  94   1  96)
       ScaRC: iterations   123, residual  0.74E-08, convergence rate   0.81E+00
       ---------------------------------------------------------------
       Mesh    1
       Max CFL number:  0.48E+00 at (  24,   1,  25)
       Max divergence:  0.38E+00 at (  33,   1,  97)
       Min divergence: -0.19E+01 at (  97,   1,  97)
       Max div. error:  0.11E-07 at (  15,   1,   1)
       Max VN number:   0.31E+00 at (  98,   1,  98)
       Mesh    2
       Max CFL number:  0.48E+00 at (  24,   1,  25)
       Max divergence:  0.38E+00 at (  33,   1,  97)
       Min divergence: -0.19E+01 at (  97,   1,  97)
       Max div. error:  0.11E-07 at ( 113,   1,   1)
       Max VN number:   0.31E+00 at (  34,   1,  34)
       Mesh    3
       Max CFL number:  0.48E+00 at (  25,   1,  24)
       Max divergence:  0.38E+00 at (  97,   1,  33)
       Min divergence: -0.19E+01 at (  97,   1,  97)
       Max div. error:  0.11E-07 at (   1,   1, 113)
       Max VN number:   0.31E+00 at (  98,   1,  98)
       Mesh    4
       Max CFL number:  0.48E+00 at (  24,   1,  25)
       Max divergence:  0.38E+00 at (  33,   1,  97)
       Min divergence: -0.19E+01 at (  97,   1,  97)
       Max div. error:  0.11E-07 at (   1,   1, 128)
       Max VN number:   0.31E+00 at (  98,   1,  98)
 
       Time Step       8   February 19, 2020  19:29:55
       Step Size:    0.346E-02 s, Total Time:       0.03 s
       Pressure Iterations:      1
       Maximum Velocity Error:  0.56E-16 on Mesh   1 at (   0   1  85)
       Maximum Pressure Error:  0.15E+01 on Mesh   2 at (  97   1  94)
       ScaRC: iterations   123, residual  0.84E-08, convergence rate   0.81E+00
       ---------------------------------------------------------------
       Mesh    1
       Max CFL number:  0.49E+00 at (  25,   1,  25)
       Max divergence:  0.44E+00 at (  33,   1,  97)
       Min divergence: -0.21E+01 at (  33,   1,  33)
       Max div. error:  0.12E-07 at (   1,   1,  42)
       Max VN number:   0.31E+00 at (  98,   1,  98)
       Mesh    2
       Max CFL number:  0.49E+00 at (  25,   1,  25)
       Max divergence:  0.44E+00 at (  97,   1,  33)
       Min divergence: -0.21E+01 at (  33,   1,  33)
       Max div. error:  0.12E-07 at ( 113,   1,   1)
       Max VN number:   0.31E+00 at (  34,   1,  34)
       Mesh    3
       Max CFL number:  0.49E+00 at (  25,   1,  25)
       Max divergence:  0.44E+00 at (  97,   1,  33)
       Min divergence: -0.21E+01 at (  33,   1,  33)
       Max div. error:  0.12E-07 at (   1,   1, 113)
       Max VN number:   0.31E+00 at (  34,   1,  34)
       Mesh    4
       Max CFL number:  0.49E+00 at (  25,   1,  25)
       Max divergence:  0.44E+00 at (  33,   1,  97)
       Min divergence: -0.21E+01 at (  97,   1,  97)
       Max div. error:  0.12E-07 at ( 128,   1,   1)
       Max VN number:   0.31E+00 at (  34,   1,  34)
 
       Time Step       9   February 19, 2020  19:29:56
       Step Size:    0.346E-02 s, Total Time:       0.03 s
       Pressure Iterations:      1
       Maximum Velocity Error:  0.11E-15 on Mesh   3 at (   0   1  41)
       Maximum Pressure Error:  0.16E+01 on Mesh   4 at (  97   1  97)
       ScaRC: iterations   123, residual  0.95E-08, convergence rate   0.81E+00
       ---------------------------------------------------------------
       Mesh    1
       Max CFL number:  0.50E+00 at (  25,   1,  25)
       Max divergence:  0.49E+00 at (  97,   1,  33)
       Min divergence: -0.23E+01 at (  33,   1,  33)
       Max div. error:  0.13E-07 at (   1,   1,  42)
       Max VN number:   0.31E+00 at (  98,   1,  98)
       Mesh    2
       Max CFL number:  0.50E+00 at (  25,   1,  25)
       Max divergence:  0.49E+00 at (  97,   1,  33)
       Min divergence: -0.23E+01 at (  97,   1,  97)
       Max div. error:  0.13E-07 at ( 113,   1,   1)
       Max VN number:   0.31E+00 at (  98,   1,  98)
       Mesh    3
       Max CFL number:  0.50E+00 at (  25,   1,  25)
       Max divergence:  0.49E+00 at (  33,   1,  97)
       Min divergence: -0.23E+01 at (  33,   1,  33)
       Max div. error:  0.13E-07 at (   1,   1, 113)
       Max VN number:   0.31E+00 at (  98,   1,  98)
       Mesh    4
       Max CFL number:  0.50E+00 at (  25,   1,  25)
       Max divergence:  0.49E+00 at (  97,   1,  33)
       Min divergence: -0.23E+01 at (  97,   1,  97)
       Max div. error:  0.13E-07 at (   1,   1, 128)
       Max VN number:   0.31E+00 at (  98,   1,  98)
 
       Time Step      10   February 19, 2020  19:29:58
       Step Size:    0.310E-02 s, Total Time:       0.03 s
       Pressure Iterations:      1
       Maximum Velocity Error:  0.56E-16 on Mesh   1 at (   0   1  94)
       Maximum Pressure Error:  0.15E+01 on Mesh   1 at (  33   1  33)
       ScaRC: iterations   123, residual  0.96E-08, convergence rate   0.81E+00
       ---------------------------------------------------------------
       Mesh    1
       Max CFL number:  0.45E+00 at (  25,   1,  25)
       Max divergence:  0.54E+00 at (  33,   1,  97)
       Min divergence: -0.25E+01 at (  34,   1,  34)
       Max div. error:  0.14E-07 at (   1,   1,  42)
       Max VN number:   0.27E+00 at (  35,   1,  35)
       Mesh    2
       Max CFL number:  0.45E+00 at (  25,   1,  25)
       Max divergence:  0.54E+00 at (  33,   1,  97)
       Min divergence: -0.25E+01 at (  34,   1,  34)
       Max div. error:  0.14E-07 at ( 113,   1,   1)
       Max VN number:   0.27E+00 at (  99,   1,  99)
       Mesh    3
       Max CFL number:  0.45E+00 at (  25,   1,  25)
       Max divergence:  0.54E+00 at (  97,   1,  33)
       Min divergence: -0.25E+01 at (  34,   1,  34)
       Max div. error:  0.14E-07 at (   1,   1, 113)
       Max VN number:   0.27E+00 at (  35,   1,  35)
       Mesh    4
       Max CFL number:  0.45E+00 at (  25,   1,  25)
       Max divergence:  0.54E+00 at (  33,   1,  97)
       Min divergence: -0.25E+01 at (  34,   1,  34)
       Max div. error:  0.14E-07 at (   1,   1, 128)
       Max VN number:   0.27E+00 at (  99,   1,  99)
 
       Time Step      20   February 19, 2020  19:30:12
       Step Size:    0.310E-02 s, Total Time:       0.07 s
       Pressure Iterations:      1
       Maximum Velocity Error:  0.56E-16 on Mesh   1 at (   0   1  71)
       Maximum Pressure Error:  0.18E+01 on Mesh   1 at (  99   1  99)
       ScaRC: iterations   125, residual  0.85E-08, convergence rate   0.80E+00
       ---------------------------------------------------------------
       Mesh    1
       Max CFL number:  0.49E+00 at (  26,   1,  27)
       Max divergence:  0.10E+01 at (  99,   1,  35)
       Min divergence: -0.43E+01 at (  36,   1,  36)
       Max div. error:  0.18E-07 at (   1,   1,  38)
       Max VN number:   0.24E+00 at ( 101,   1, 101)
       Mesh    2
       Max CFL number:  0.49E+00 at (  27,   1,  26)
       Max divergence:  0.10E+01 at (  35,   1,  99)
       Min divergence: -0.43E+01 at (  36,   1,  36)
       Max div. error:  0.18E-07 at ( 112,   1,   1)
       Max VN number:   0.24E+00 at (  37,   1,  37)
       Mesh    3
       Max CFL number:  0.49E+00 at (  26,   1,  27)
       Max divergence:  0.10E+01 at (  99,   1,  35)
       Min divergence: -0.43E+01 at (  36,   1,  36)
       Max div. error:  0.18E-07 at (   1,   1, 112)
       Max VN number:   0.24E+00 at (  37,   1,  37)
       Mesh    4
       Max CFL number:  0.49E+00 at (  26,   1,  27)
       Max divergence:  0.10E+01 at (  35,   1,  99)
       Min divergence: -0.43E+01 at (  36,   1,  36)
       Max div. error:  0.18E-07 at (   1,   1, 128)
       Max VN number:   0.24E+00 at (  37,   1,  37)
 
       Time Step      30   February 19, 2020  19:30:26
       Step Size:    0.278E-02 s, Total Time:       0.09 s
       Pressure Iterations:      1
       Maximum Velocity Error:  0.11E-15 on Mesh   1 at (   0   1  39)
       Maximum Pressure Error:  0.13E+01 on Mesh   1 at ( 101   1 101)
       ScaRC: iterations   127, residual  0.66E-08, convergence rate   0.80E+00
       ---------------------------------------------------------------
       Mesh    1
       Max CFL number:  0.46E+00 at (  27,   1,  28)
       Max divergence:  0.15E+01 at ( 101,   1,  37)
       Min divergence: -0.52E+01 at (  38,   1,  38)
       Max div. error:  0.15E-07 at (  66,   1,   1)
       Max VN number:   0.19E+00 at ( 102,   1, 102)
       Mesh    2
       Max CFL number:  0.46E+00 at (  27,   1,  28)
       Max divergence:  0.15E+01 at ( 101,   1,  37)
       Min divergence: -0.52E+01 at (  38,   1,  38)
       Max div. error:  0.15E-07 at ( 113,   1,   1)
       Max VN number:   0.19E+00 at (  38,   1,  38)
       Mesh    3
       Max CFL number:  0.46E+00 at (  27,   1,  28)
       Max divergence:  0.15E+01 at (  37,   1, 101)
       Min divergence: -0.52E+01 at (  38,   1,  38)
       Max div. error:  0.15E-07 at (   1,   1, 113)
       Max VN number:   0.19E+00 at ( 102,   1, 102)
       Mesh    4
       Max CFL number:  0.46E+00 at (  28,   1,  27)
       Max divergence:  0.15E+01 at ( 101,   1,  37)
       Min divergence: -0.52E+01 at ( 102,   1, 102)
       Max div. error:  0.15E-07 at ( 113,   1, 128)
       Max VN number:   0.19E+00 at ( 102,   1, 102)
 
       Time Step      40   February 19, 2020  19:30:40
       Step Size:    0.278E-02 s, Total Time:       0.12 s
       Pressure Iterations:      1
       Maximum Velocity Error:  0.11E-15 on Mesh   1 at (   0   1  28)
       Maximum Pressure Error:  0.98E+00 on Mesh   1 at (  43   1  38)
       ScaRC: iterations   129, residual  0.56E-08, convergence rate   0.80E+00
       ---------------------------------------------------------------
       Mesh    1
       Max CFL number:  0.48E+00 at (  28,   1,  29)
       Max divergence:  0.20E+01 at ( 103,   1,  39)
       Min divergence: -0.56E+01 at ( 104,   1, 104)
       Max VN number:   0.16E+00 at ( 104,   1, 104)
       Mesh    2
       Max CFL number:  0.48E+00 at (  29,   1,  28)
       Max divergence:  0.20E+01 at (  39,   1, 103)
       Min divergence: -0.56E+01 at (  40,   1,  40)
       Max VN number:   0.16E+00 at (  40,   1,  40)
       Mesh    3
       Max CFL number:  0.48E+00 at (  28,   1,  29)
       Max divergence:  0.20E+01 at ( 103,   1,  39)
       Min divergence: -0.56E+01 at ( 104,   1, 104)
       Max VN number:   0.16E+00 at ( 104,   1, 104)
       Mesh    4
       Max CFL number:  0.48E+00 at (  28,   1,  29)
       Max divergence:  0.20E+01 at ( 103,   1,  39)
       Min divergence: -0.56E+01 at ( 104,   1, 104)
       Max VN number:   0.16E+00 at ( 104,   1, 104)
 
       Time Step      50   February 19, 2020  19:30:54
       Step Size:    0.278E-02 s, Total Time:       0.15 s
       Pressure Iterations:      1
       Maximum Velocity Error:  0.11E-15 on Mesh   1 at (   0   1  30)
       Maximum Pressure Error:  0.72E+00 on Mesh   1 at ( 109   1 109)
       ScaRC: iterations   129, residual  0.98E-08, convergence rate   0.80E+00
       ---------------------------------------------------------------
       Mesh    1
       Max CFL number:  0.49E+00 at (  29,   1,  30)
       Max divergence:  0.24E+01 at ( 106,   1,  42)
       Min divergence: -0.56E+01 at ( 106,   1, 106)
       Max VN number:   0.14E+00 at ( 106,   1, 106)
       Mesh    2
       Max CFL number:  0.49E+00 at (  30,   1,  29)
       Max divergence:  0.24E+01 at (  42,   1, 106)
       Min divergence: -0.56E+01 at (  42,   1,  42)
       Max VN number:   0.14E+00 at (  42,   1,  42)
       Mesh    3
       Max CFL number:  0.49E+00 at (  29,   1,  30)
       Max divergence:  0.24E+01 at ( 106,   1,  42)
       Min divergence: -0.56E+01 at (  42,   1,  42)
       Max VN number:   0.14E+00 at (  42,   1,  42)
       Mesh    4
       Max CFL number:  0.49E+00 at (  94,   1,  93)
       Max divergence:  0.24E+01 at ( 106,   1,  42)
       Min divergence: -0.56E+01 at (  42,   1,  42)
       Max VN number:   0.14E+00 at (  42,   1,  42)
 
       Time Step      60   February 19, 2020  19:31:09
       Step Size:    0.278E-02 s, Total Time:       0.18 s
       Pressure Iterations:      1
       Maximum Velocity Error:  0.11E-15 on Mesh   1 at (   0   1  28)
       Maximum Pressure Error:  0.51E+00 on Mesh   3 at ( 111   1 111)
       ScaRC: iterations   130, residual  0.93E-08, convergence rate   0.79E+00
       ---------------------------------------------------------------
       Mesh    1
       Max CFL number:  0.49E+00 at (  94,   1,  95)
       Max divergence:  0.29E+01 at (  44,   1, 108)
       Min divergence: -0.53E+01 at ( 108,   1, 108)
       Max VN number:   0.12E+00 at ( 108,   1, 108)
       Mesh    2
       Max CFL number:  0.49E+00 at (  95,   1,  94)
       Max divergence:  0.29E+01 at ( 108,   1,  44)
       Min divergence: -0.53E+01 at ( 108,   1, 108)
       Max VN number:   0.12E+00 at (  44,   1,  44)
       Mesh    3
       Max CFL number:  0.49E+00 at (  95,   1,  94)
       Max divergence:  0.29E+01 at ( 108,   1,  44)
       Min divergence: -0.53E+01 at (  44,   1,  44)
       Max VN number:   0.12E+00 at (  44,   1,  44)
       Mesh    4
       Max CFL number:  0.49E+00 at (  94,   1,  95)
       Max divergence:  0.29E+01 at ( 108,   1,  44)
       Min divergence: -0.53E+01 at (  44,   1,  44)
       Max VN number:   0.12E+00 at (  44,   1,  44)
 
       Time Step      70   February 19, 2020  19:31:23
       Step Size:    0.278E-02 s, Total Time:       0.21 s
       Pressure Iterations:      1
       Maximum Velocity Error:  0.11E-15 on Mesh   1 at (   0   1  43)
       Maximum Pressure Error:  0.35E+00 on Mesh   4 at (  49   1  49)
       ScaRC: iterations   131, residual  0.56E-08, convergence rate   0.79E+00
       ---------------------------------------------------------------
       Mesh    1
       Max CFL number:  0.49E+00 at (  95,   1,  96)
       Max divergence:  0.34E+01 at (  46,   1, 110)
       Min divergence: -0.49E+01 at (  46,   1,  46)
       Max VN number:   0.10E+00 at (  47,   1,  47)
       Mesh    2
       Max CFL number:  0.49E+00 at (  95,   1,  96)
       Max divergence:  0.34E+01 at ( 110,   1,  46)
       Min divergence: -0.49E+01 at ( 110,   1, 110)
       Max VN number:   0.10E+00 at (  47,   1,  47)
       Mesh    3
       Max CFL number:  0.49E+00 at (  95,   1,  96)
       Max divergence:  0.34E+01 at (  46,   1, 110)
       Min divergence: -0.49E+01 at (  46,   1,  46)
       Max VN number:   0.10E+00 at (  47,   1,  47)
       Mesh    4
       Max CFL number:  0.49E+00 at (  95,   1,  96)
       Max divergence:  0.34E+01 at (  46,   1, 110)
       Min divergence: -0.49E+01 at ( 110,   1, 110)
       Max VN number:   0.10E+00 at (  47,   1,  47)
 
       Time Step      80   February 19, 2020  19:31:36
       Step Size:    0.278E-02 s, Total Time:       0.23 s
       Pressure Iterations:      1
       Maximum Velocity Error:  0.11E-15 on Mesh   1 at (   0   1  27)
       Maximum Pressure Error:  0.20E+00 on Mesh   3 at ( 115   1 115)
       ScaRC: iterations   131, residual  0.62E-08, convergence rate   0.79E+00
       ---------------------------------------------------------------
       Mesh    1
       Max CFL number:  0.49E+00 at (  97,   1,  96)
       Max divergence:  0.39E+01 at ( 111,   1,  47)
       Min divergence: -0.45E+01 at ( 111,   1, 111)
       Max VN number:   0.92E-01 at (  50,   1,  50)
       Mesh    2
       Max CFL number:  0.49E+00 at (  96,   1,  97)
       Max divergence:  0.39E+01 at (  47,   1, 111)
       Min divergence: -0.45E+01 at (  47,   1,  47)
       Max VN number:   0.92E-01 at (  50,   1,  50)
       Mesh    3
       Max CFL number:  0.49E+00 at (  97,   1,  96)
       Max divergence:  0.39E+01 at ( 111,   1,  47)
       Min divergence: -0.45E+01 at (  47,   1,  47)
       Max VN number:   0.92E-01 at (  50,   1,  50)
       Mesh    4
       Max CFL number:  0.49E+00 at (  97,   1,  96)
       Max divergence:  0.39E+01 at (  47,   1, 111)
       Min divergence: -0.45E+01 at (  47,   1,  47)
       Max VN number:   0.92E-01 at (  50,   1,  50)
 
       Time Step      90   February 19, 2020  19:31:50
       Step Size:    0.278E-02 s, Total Time:       0.26 s
       Pressure Iterations:      1
       Maximum Velocity Error:  0.11E-15 on Mesh   1 at (   0   1  31)
       Maximum Pressure Error:  0.12E+00 on Mesh   1 at ( 114   1 114)
       ScaRC: iterations   131, residual  0.61E-08, convergence rate   0.79E+00
       ---------------------------------------------------------------
       Mesh    1
       Max CFL number:  0.49E+00 at ( 128,   1,  64)
       Max divergence:  0.44E+01 at (  49,   1, 113)
       Min divergence: -0.40E+01 at (  49,   1,  49)
       Max VN number:   0.90E-01 at ( 113,   1,  49)
       Mesh    2
       Max CFL number:  0.49E+00 at ( 128,   1,  64)
       Max divergence:  0.44E+01 at ( 113,   1,  49)
       Min divergence: -0.40E+01 at ( 113,   1, 113)
       Max VN number:   0.90E-01 at (  49,   1, 113)
       Mesh    3
       Max CFL number:  0.49E+00 at (  64,   1, 128)
       Max divergence:  0.44E+01 at (  49,   1, 113)
       Min divergence: -0.40E+01 at ( 113,   1, 113)
       Max VN number:   0.90E-01 at (  49,   1, 113)
       Mesh    4
       Max CFL number:  0.49E+00 at (  64,   1, 128)
       Max divergence:  0.44E+01 at (  49,   1, 113)
       Min divergence: -0.40E+01 at (  49,   1,  49)
       Max VN number:   0.90E-01 at ( 113,   1,  49)
 
       Time Step     100   February 19, 2020  19:32:04
       Step Size:    0.278E-02 s, Total Time:       0.29 s
       Pressure Iterations:      1
       Maximum Velocity Error:  0.11E-15 on Mesh   1 at (   0   1  33)
       Maximum Pressure Error:  0.19E+00 on Mesh   3 at ( 113   1  49)
       ScaRC: iterations   131, residual  0.56E-08, convergence rate   0.79E+00
       ---------------------------------------------------------------
       Mesh    1
       Max CFL number:  0.49E+00 at (  65,   1,   1)
       Max divergence:  0.48E+01 at (  51,   1, 115)
       Min divergence: -0.35E+01 at ( 115,   1, 115)
       Max VN number:   0.10E+00 at ( 115,   1,  51)
       Mesh    2
       Max CFL number:  0.49E+00 at (   1,   1,  65)
       Max divergence:  0.48E+01 at ( 115,   1,  51)
       Min divergence: -0.35E+01 at (  51,   1,  51)
       Max VN number:   0.10E+00 at ( 115,   1,  51)
       Mesh    3
       Max CFL number:  0.49E+00 at (  65,   1,   1)
       Max divergence:  0.48E+01 at (  51,   1, 115)
       Min divergence: -0.35E+01 at (  51,   1,  51)
       Max VN number:   0.10E+00 at (  51,   1, 115)
       Mesh    4
       Max CFL number:  0.49E+00 at (   1,   1,  65)
       Max divergence:  0.48E+01 at ( 115,   1,  51)
       Min divergence: -0.35E+01 at ( 115,   1, 115)
       Max VN number:   0.10E+00 at (  51,   1, 115)
 
       Time Step     200   February 19, 2020  19:34:29
       Step Size:    0.302E-02 s, Total Time:       0.58 s
       Pressure Iterations:      1
       Maximum Velocity Error:  0.56E-16 on Mesh   1 at (   0   1  17)
       Maximum Pressure Error:  0.15E+01 on Mesh   3 at (  67   1   3)
       ScaRC: iterations   129, residual  0.65E-08, convergence rate   0.79E+00
       ---------------------------------------------------------------
       Mesh    1
       Max CFL number:  0.49E+00 at (  59,   1, 123)
       Max divergence:  0.13E+01 at (   4,   1,   4)
       Min divergence: -0.48E+01 at (  69,   1,   5)
       Max VN number:   0.22E+00 at (   6,   1,  70)
       Mesh    2
       Max CFL number:  0.49E+00 at (  59,   1, 123)
       Max divergence:  0.13E+01 at (   4,   1,   4)
       Min divergence: -0.48E+01 at (   5,   1,  69)
       Max VN number:   0.22E+00 at (   6,   1,  70)
       Mesh    3
       Max CFL number:  0.49E+00 at (  59,   1, 123)
       Max divergence:  0.13E+01 at (   4,   1,   4)
       Min divergence: -0.48E+01 at (  69,   1,   5)
       Max VN number:   0.22E+00 at (  70,   1,   6)
       Mesh    4
       Max CFL number:  0.49E+00 at ( 123,   1,  59)
       Max divergence:  0.13E+01 at (   4,   1,   4)
       Min divergence: -0.48E+01 at (  69,   1,   5)
       Max VN number:   0.22E+00 at (  70,   1,   6)
 
       Time Step     300   February 19, 2020  19:36:53
       Step Size:    0.271E-02 s, Total Time:       0.85 s
       Pressure Iterations:      1
       Maximum Velocity Error:  0.11E-15 on Mesh   1 at (   0   1  72)
       Maximum Pressure Error:  0.64E+00 on Mesh   3 at (  21   1  21)
       ScaRC: iterations   129, residual  0.69E-08, convergence rate   0.80E+00
       ---------------------------------------------------------------
       Mesh    1
       Max CFL number:  0.48E+00 at (  35,   1,  36)
       Max divergence:  0.56E+01 at (  23,   1,  23)
       Min divergence: -0.24E+01 at (  87,   1,  23)
       Max VN number:   0.14E+00 at (  23,   1,  23)
       Mesh    2
       Max CFL number:  0.48E+00 at (  35,   1,  36)
       Max divergence:  0.56E+01 at (  23,   1,  23)
       Min divergence: -0.24E+01 at (  23,   1,  87)
       Max VN number:   0.14E+00 at (  23,   1,  23)
       Mesh    3
       Max CFL number:  0.48E+00 at (  35,   1,  36)
       Max divergence:  0.56E+01 at (  23,   1,  23)
       Min divergence: -0.24E+01 at (  23,   1,  87)
       Max VN number:   0.14E+00 at (  23,   1,  23)
       Mesh    4
       Max CFL number:  0.48E+00 at (  36,   1,  35)
       Max divergence:  0.56E+01 at (  23,   1,  23)
       Min divergence: -0.24E+01 at (  23,   1,  87)
       Max VN number:   0.14E+00 at (  23,   1,  23)
 
       Time Step     354   February 19, 2020  19:38:05
       Step Size:    0.232E-03 s, Total Time:       1.00 s
       Pressure Iterations:      1
       Maximum Velocity Error:  0.11E-15 on Mesh   1 at (   0   1  30)
       Maximum Pressure Error:  0.73E-01 on Mesh   1 at (  36   1  36)
       ScaRC: iterations   113, residual  0.73E-08, convergence rate   0.81E+00
       ---------------------------------------------------------------
       Mesh    1
       Max CFL number:  0.30E-01 at (  33,   1,  33)
       Max divergence:  0.62E-01 at (  97,   1,  97)
       Min divergence: -0.28E-01 at (  35,   1,  35)
       Max VN number:   0.21E-01 at (  32,   1,  32)
       Mesh    2
       Max CFL number:  0.30E-01 at (  33,   1,  33)
       Max divergence:  0.62E-01 at (  97,   1,  97)
       Min divergence: -0.28E-01 at (  35,   1,  35)
       Max VN number:   0.21E-01 at (  32,   1,  32)
       Mesh    3
       Max CFL number:  0.30E-01 at (  33,   1,  33)
       Max divergence:  0.62E-01 at (  97,   1,  97)
       Min divergence: -0.28E-01 at (  35,   1,  35)
       Max VN number:   0.21E-01 at (  32,   1,  32)
       Mesh    4
       Max CFL number:  0.30E-01 at (  33,   1,  33)
       Max divergence:  0.62E-01 at (  97,   1,  97)
       Min divergence: -0.28E-01 at (  35,   1,  35)
       Max VN number:   0.21E-01 at (  32,   1,  32)
 


 Time Stepping Wall Clock Time (s):      500.858
 Total Elapsed Wall Clock Time (s):      501.429

STOP: FDS completed successfully (CHID: shunn3_4mesh_256_scarc)
