
 Fire Dynamics Simulator

 Current Date     : February 19, 2020  19:29:45
 Revision         : -master
 Revision Date    : Wed Feb 19 18:38:00 2020 +0100
 Compiler         : Intel ifort 18.0.1
 Compilation Date : Feb 19, 2020 18:48:59

 MPI Enabled;    Number of MPI Processes:       4
 OpenMP Enabled; Number of OpenMP Threads:      4

 MPI version: 3.1
 MPI library version: Intel(R) MPI Library 2018 Update 1 for Linux* OS


 Job TITLE        : Shunn et al. (2012) JCP, Problem 3, FLUX_LIMITER=CHARM
 Job ID string    : shunn3_4mesh_512_scarc


 Grid Dimensions, Mesh     1

   Cells in the X Direction           256
   Cells in the Y Direction             1
   Cells in the Z Direction           256
   Number of Grid Cells             65536


 Physical Dimensions, Mesh     1

   Length (m)                       1.000
   Width  (m)                       0.100
   Height (m)                       1.000
   Initial Time Step (s)            0.002

 Grid Dimensions, Mesh     2

   Cells in the X Direction           256
   Cells in the Y Direction             1
   Cells in the Z Direction           256
   Number of Grid Cells             65536


 Physical Dimensions, Mesh     2

   Length (m)                       1.000
   Width  (m)                       0.100
   Height (m)                       1.000
   Initial Time Step (s)            0.002

 Grid Dimensions, Mesh     3

   Cells in the X Direction           256
   Cells in the Y Direction             1
   Cells in the Z Direction           256
   Number of Grid Cells             65536


 Physical Dimensions, Mesh     3

   Length (m)                       1.000
   Width  (m)                       0.100
   Height (m)                       1.000
   Initial Time Step (s)            0.002

 Grid Dimensions, Mesh     4

   Cells in the X Direction           256
   Cells in the Y Direction             1
   Cells in the Z Direction           256
   Number of Grid Cells             65536


 Physical Dimensions, Mesh     4

   Length (m)                       1.000
   Width  (m)                       0.100
   Height (m)                       1.000
   Initial Time Step (s)            0.002

Total Number of Grid Cells        262144


 Miscellaneous Parameters

   Simulation Start Time (s)          0.0
   Simulation End Time (s)            1.0
   Ambient Temperature (C):         20.00


 Mass Fraction Transformation Matrix to Convert Species Mixtures (Columns) to Primitive Species (Rows)

                         BACKGROU  SCALAR  
   BACKGROUND            1.000000  0.000000
   SCALAR                0.000000  1.000000


 Primitive Species Information

   BACKGROUND
   Gas Species
   Molecular Weight (g/mol)            50.00000
   Ambient Density (kg/m^3)            5.000
   Enthalpy of Formation (J/kg)        2.98E+05

   SCALAR
   Gas Species
   Molecular Weight (g/mol)            10.00000
   Ambient Density (kg/m^3)            1.000
   Enthalpy of Formation (J/kg)        2.98E+05


 Tracked (Lumped) Species Information

   BACKGROUND
   Molecular Weight (g/mol)            50.00000
   Ambient Density (kg/m^3)            5.000
   Initial Mass Fraction               1.000
   Enthalpy of Formation (J/kg)      2.98E+05

   Sub Species                    Mass Fraction     Mole Fraction
   BACKGROUND                     1.000000E+00      1.000000E+00
 
     Viscosity (kg/m/s) Ambient,  293 K:  1.00E-03
                                  500 K:  1.00E-03
                                 1000 K:  1.00E-03
                                 1500 K:  1.00E-03
   Therm. Cond. (W/m/K) Ambient,  293 K:  1.41E+00
                                  500 K:  1.41E+00
                                 1000 K:  1.41E+00
                                 1500 K:  1.41E+00
        Enthalpy (J/kg) Ambient,  293 K:  2.93E+05
                                  500 K:  5.00E+05
                                 1000 K:  1.00E+06
                                 1500 K:  1.50E+06
    Spec. Heat (J/kg/K) Ambient,  293 K:  1.00E+03
                                  500 K:  1.00E+03
                                 1000 K:  1.00E+03
                                 1500 K:  1.00E+03
   Diff. Coeff. (m^2/s) Ambient,  293 K:  1.49E-05
                                  500 K:  3.69E-05
                                 1000 K:  1.17E-04
                                 1500 K:  2.30E-04

   SCALAR
   Molecular Weight (g/mol)            10.00000
   Ambient Density (kg/m^3)            1.000
   Initial Mass Fraction               0.000
   Enthalpy of Formation (J/kg)      2.98E+05

   Sub Species                    Mass Fraction     Mole Fraction
   SCALAR                         1.000000E+00      1.000000E+00
 
     Viscosity (kg/m/s) Ambient,  293 K:  1.00E-03
                                  500 K:  1.00E-03
                                 1000 K:  1.00E-03
                                 1500 K:  1.00E-03
   Therm. Cond. (W/m/K) Ambient,  293 K:  1.41E+00
                                  500 K:  1.41E+00
                                 1000 K:  1.41E+00
                                 1500 K:  1.41E+00
        Enthalpy (J/kg) Ambient,  293 K:  2.93E+05
                                  500 K:  5.00E+05
                                 1000 K:  1.00E+06
                                 1500 K:  1.50E+06
    Spec. Heat (J/kg/K) Ambient,  293 K:  1.00E+03
                                  500 K:  1.00E+03
                                 1000 K:  1.00E+03
                                 1500 K:  1.00E+03
   Diff. Coeff. (m^2/s) Ambient,  293 K:  2.57E-05
                                  500 K:  6.40E-05
                                 1000 K:  2.03E-04
                                 1500 K:  3.98E-04


 Material Information


 Surface Conditions

   0 INERT (DEFAULT)

   1 OPEN
     Passive Vent to Atmosphere

   2 MIRROR
     Symmetry Plane

   3 INTERPOLATED

   4 PERIODIC

   5 HVAC

   6 MASSLESS TRACER

   7 DROPLET

   8 EVACUATION_OUTFLOW
     Normal Velocity (m/s)         0.000

   9 MASSLESS TARGET

  10 PERIODIC WIND

  11 SLICE


 Device Coordinates

     1 Coords:     -0.000039      0.000000     -0.000039, Make: null, ID: scarc-iter, Quantity: SCARC ITERATIONS
     2 Coords:     -0.000039      0.000000     -0.000039, Make: null, ID: scarc-rate, Quantity: SCARC CONVERGENCE RATE
     3 Coords:     -0.000039      0.000000     -0.000039, Make: null, ID: scarc-res, Quantity: SCARC RESIDUAL


 Slice File Information, Mesh     1

   Sampling Interval (s)             0.001

   1 Nodes:   0 256   1   1   0 256, Quantity: VELOCITY
   2 Nodes:   0 256   1   1   0 256, Quantity: U-VELOCITY
   3 Nodes:   0 256   1   1   0 256, Quantity: W-VELOCITY
   4 Nodes:   0 256   1   1   0 256, Quantity: DENSITY
   5 Nodes:   0 256   1   1   0 256, Quantity: DIVERGENCE
   6 Nodes:   0 256   1   1   0 256, Quantity: SCALAR MASS FRACTION
   7 Nodes:   0 256   1   1   0 256, Quantity: TEMPERATURE
   8 Nodes:   0 256   1   1   0 256, Quantity: H
   9 Nodes:   0 256   1   1   0 256, Quantity: PRESSURE
  10 Nodes:   0 256   1   1   0 256, Quantity: VISCOSITY


 SCARC Information

   Discretization        STRUCTURED
   Global solver             KRYLOV
   Storage technique        COMPACT
   Preconditioner           PARDISO
   Max iterations              1000
   Stopping accuracy       0.10E-07
 
 

 Run Time Diagnostics

       Time Step       1   February 19, 2020  19:29:57
       Step Size:    0.122E-02 s, Total Time:      0.001 s
       Pressure Iterations:      1
       Maximum Velocity Error:  0.56E-16 on Mesh   1 at (   0   1 148)
       Maximum Pressure Error:  0.48E+00 on Mesh   2 at ( 203   1 203)
       ScaRC: iterations   167, residual  0.80E-08, convergence rate   0.86E+00
       ---------------------------------------------------------------
       Mesh    1
       Max CFL number:  0.31E+00 at (  44,   1,  45)
       Max divergence:  0.20E-01 at ( 194,   1,  66)
       Min divergence: -0.11E+00 at (  66,   1,  66)
       Max VN number:   0.45E+00 at (  65,   1,  65)
       Mesh    2
       Max CFL number:  0.31E+00 at (  44,   1,  45)
       Max divergence:  0.20E-01 at (  66,   1, 194)
       Min divergence: -0.11E+00 at (  66,   1,  66)
       Max VN number:   0.45E+00 at (  65,   1,  65)
       Mesh    3
       Max CFL number:  0.31E+00 at (  45,   1,  44)
       Max divergence:  0.20E-01 at ( 194,   1,  66)
       Min divergence: -0.11E+00 at (  66,   1,  66)
       Max VN number:   0.45E+00 at (  65,   1,  65)
       Mesh    4
       Max CFL number:  0.31E+00 at (  44,   1,  45)
       Max divergence:  0.20E-01 at (  66,   1, 194)
       Min divergence: -0.11E+00 at (  66,   1,  66)
       Max VN number:   0.45E+00 at ( 193,   1, 193)
 
       Time Step       2   February 19, 2020  19:30:05
       Step Size:    0.122E-02 s, Total Time:      0.002 s
       Pressure Iterations:      1
       Maximum Velocity Error:  0.56E-16 on Mesh   1 at (   0   1 150)
       Maximum Pressure Error:  0.42E+00 on Mesh   4 at (  54   1  54)
       ScaRC: iterations   164, residual  0.97E-08, convergence rate   0.86E+00
       ---------------------------------------------------------------
       Mesh    1
       Max CFL number:  0.31E+00 at ( 173,   1, 173)
       Max divergence:  0.40E-01 at ( 192,   1,  64)
       Min divergence: -0.21E+00 at ( 192,   1, 192)
       Max VN number:   0.45E+00 at (  65,   1,  65)
       Mesh    2
       Max CFL number:  0.31E+00 at (  45,   1,  45)
       Max divergence:  0.40E-01 at (  64,   1, 192)
       Min divergence: -0.21E+00 at ( 192,   1, 192)
       Max VN number:   0.45E+00 at ( 193,   1, 193)
       Mesh    3
       Max CFL number:  0.31E+00 at (  45,   1,  45)
       Max divergence:  0.40E-01 at (  64,   1, 192)
       Min divergence: -0.21E+00 at ( 192,   1, 192)
       Max VN number:   0.45E+00 at ( 193,   1, 193)
       Mesh    4
       Max CFL number:  0.31E+00 at ( 173,   1, 173)
       Max divergence:  0.40E-01 at (  64,   1, 192)
       Min divergence: -0.21E+00 at ( 192,   1, 192)
       Max VN number:   0.45E+00 at ( 193,   1, 193)
 
       Time Step       3   February 19, 2020  19:30:13
       Step Size:    0.122E-02 s, Total Time:      0.004 s
       Pressure Iterations:      1
       Maximum Velocity Error:  0.56E-16 on Mesh   1 at (   0   1 136)
       Maximum Pressure Error:  0.43E+00 on Mesh   4 at (  54   1  54)
       ScaRC: iterations   164, residual  0.82E-08, convergence rate   0.86E+00
       ---------------------------------------------------------------
       Mesh    1
       Max CFL number:  0.32E+00 at (  45,   1,  45)
       Max divergence:  0.59E-01 at (  64,   1, 192)
       Min divergence: -0.31E+00 at ( 192,   1, 192)
       Max VN number:   0.45E+00 at ( 193,   1, 193)
       Mesh    2
       Max CFL number:  0.32E+00 at ( 173,   1, 173)
       Max divergence:  0.59E-01 at (  64,   1, 192)
       Min divergence: -0.31E+00 at ( 192,   1, 192)
       Max VN number:   0.45E+00 at ( 193,   1, 193)
       Mesh    3
       Max CFL number:  0.32E+00 at ( 173,   1, 173)
       Max divergence:  0.59E-01 at (  64,   1, 192)
       Min divergence: -0.31E+00 at ( 192,   1, 192)
       Max VN number:   0.45E+00 at ( 193,   1, 193)
       Mesh    4
       Max CFL number:  0.32E+00 at (  45,   1,  45)
       Max divergence:  0.59E-01 at (  64,   1, 192)
       Min divergence: -0.31E+00 at (  64,   1,  64)
       Max VN number:   0.45E+00 at ( 193,   1, 193)
 
       Time Step       4   February 19, 2020  19:30:21
       Step Size:    0.122E-02 s, Total Time:      0.005 s
       Pressure Iterations:      1
       Maximum Velocity Error:  0.56E-16 on Mesh   1 at (   0   1 132)
       Maximum Pressure Error:  0.43E+00 on Mesh   3 at ( 183   1 183)
       ScaRC: iterations   164, residual  0.82E-08, convergence rate   0.86E+00
       ---------------------------------------------------------------
       Mesh    1
       Max CFL number:  0.32E+00 at (  45,   1,  45)
       Max divergence:  0.79E-01 at (  64,   1, 192)
       Min divergence: -0.41E+00 at ( 192,   1, 192)
       Max VN number:   0.45E+00 at ( 193,   1, 193)
       Mesh    2
       Max CFL number:  0.32E+00 at (  45,   1,  45)
       Max divergence:  0.79E-01 at (  64,   1, 192)
       Min divergence: -0.41E+00 at (  64,   1,  64)
       Max VN number:   0.45E+00 at ( 193,   1, 193)
       Mesh    3
       Max CFL number:  0.32E+00 at (  45,   1,  45)
       Max divergence:  0.79E-01 at (  64,   1, 192)
       Min divergence: -0.41E+00 at (  64,   1,  64)
       Max VN number:   0.45E+00 at ( 193,   1, 193)
       Mesh    4
       Max CFL number:  0.32E+00 at ( 173,   1, 173)
       Max divergence:  0.79E-01 at ( 192,   1,  64)
       Min divergence: -0.41E+00 at (  64,   1,  64)
       Max VN number:   0.45E+00 at ( 193,   1, 193)
 
       Time Step       5   February 19, 2020  19:30:30
       Step Size:    0.122E-02 s, Total Time:      0.006 s
       Pressure Iterations:      1
       Maximum Velocity Error:  0.56E-16 on Mesh   1 at (   0   1 131)
       Maximum Pressure Error:  0.44E+00 on Mesh   1 at ( 183   1 183)
       ScaRC: iterations   164, residual  0.95E-08, convergence rate   0.86E+00
       ---------------------------------------------------------------
       Mesh    1
       Max CFL number:  0.32E+00 at (  45,   1,  45)
       Max divergence:  0.98E-01 at ( 192,   1,  64)
       Min divergence: -0.50E+00 at (  64,   1,  64)
       Max VN number:   0.45E+00 at ( 193,   1, 193)
       Mesh    2
       Max CFL number:  0.32E+00 at (  45,   1,  45)
       Max divergence:  0.98E-01 at (  64,   1, 192)
       Min divergence: -0.50E+00 at (  64,   1,  64)
       Max VN number:   0.45E+00 at ( 193,   1, 193)
       Mesh    3
       Max CFL number:  0.32E+00 at (  45,   1,  45)
       Max divergence:  0.98E-01 at (  64,   1, 192)
       Min divergence: -0.50E+00 at (  64,   1,  64)
       Max VN number:   0.45E+00 at ( 193,   1, 193)
       Mesh    4
       Max CFL number:  0.32E+00 at (  45,   1,  45)
       Max divergence:  0.98E-01 at ( 192,   1,  64)
       Min divergence: -0.50E+00 at (  64,   1,  64)
       Max VN number:   0.45E+00 at ( 193,   1, 193)
 
       Time Step       6   February 19, 2020  19:30:39
       Step Size:    0.122E-02 s, Total Time:      0.007 s
       Pressure Iterations:      1
       Maximum Velocity Error:  0.56E-16 on Mesh   1 at (   0   1 161)
       Maximum Pressure Error:  0.44E+00 on Mesh   2 at ( 183   1 183)
       ScaRC: iterations   165, residual  0.84E-08, convergence rate   0.86E+00
       ---------------------------------------------------------------
       Mesh    1
       Max CFL number:  0.32E+00 at ( 173,   1, 173)
       Max divergence:  0.12E+00 at (  64,   1, 192)
       Min divergence: -0.59E+00 at (  64,   1,  64)
       Max VN number:   0.45E+00 at (  65,   1,  65)
       Mesh    2
       Max CFL number:  0.32E+00 at ( 173,   1, 173)
       Max divergence:  0.12E+00 at ( 192,   1,  64)
       Min divergence: -0.59E+00 at (  64,   1,  64)
       Max VN number:   0.45E+00 at (  65,   1,  65)
       Mesh    3
       Max CFL number:  0.32E+00 at (  45,   1,  45)
       Max divergence:  0.12E+00 at (  64,   1, 192)
       Min divergence: -0.59E+00 at (  64,   1,  64)
       Max VN number:   0.45E+00 at ( 193,   1, 193)
       Mesh    4
       Max CFL number:  0.32E+00 at ( 173,   1, 173)
       Max divergence:  0.12E+00 at ( 192,   1,  64)
       Min divergence: -0.59E+00 at (  64,   1,  64)
       Max VN number:   0.45E+00 at ( 193,   1, 193)
 
       Time Step       7   February 19, 2020  19:30:48
       Step Size:    0.122E-02 s, Total Time:      0.009 s
       Pressure Iterations:      1
       Maximum Velocity Error:  0.56E-16 on Mesh   1 at (   0   1 130)
       Maximum Pressure Error:  0.45E+00 on Mesh   2 at (  56   1  56)
       ScaRC: iterations   167, residual  0.77E-08, convergence rate   0.86E+00
       ---------------------------------------------------------------
       Mesh    1
       Max CFL number:  0.32E+00 at (  45,   1,  45)
       Max divergence:  0.14E+00 at (  64,   1, 192)
       Min divergence: -0.69E+00 at (  67,   1,  67)
       Max VN number:   0.45E+00 at (  65,   1,  65)
       Mesh    2
       Max CFL number:  0.32E+00 at ( 173,   1, 173)
       Max divergence:  0.14E+00 at ( 192,   1,  64)
       Min divergence: -0.69E+00 at (  67,   1,  67)
       Max VN number:   0.45E+00 at (  65,   1,  65)
       Mesh    3
       Max CFL number:  0.32E+00 at (  45,   1,  45)
       Max divergence:  0.14E+00 at (  64,   1, 192)
       Min divergence: -0.69E+00 at (  67,   1,  67)
       Max VN number:   0.45E+00 at ( 193,   1, 193)
       Mesh    4
       Max CFL number:  0.32E+00 at ( 173,   1, 173)
       Max divergence:  0.14E+00 at (  64,   1, 192)
       Min divergence: -0.69E+00 at (  67,   1,  67)
       Max VN number:   0.45E+00 at ( 193,   1, 193)
 
       Time Step       8   February 19, 2020  19:30:57
       Step Size:    0.122E-02 s, Total Time:      0.010 s
       Pressure Iterations:      1
       Maximum Velocity Error:  0.56E-16 on Mesh   1 at (   0   1 137)
       Maximum Pressure Error:  0.45E+00 on Mesh   3 at ( 184   1 184)
       ScaRC: iterations   169, residual  0.82E-08, convergence rate   0.86E+00
       ---------------------------------------------------------------
       Mesh    1
       Max CFL number:  0.32E+00 at (  46,   1,  45)
       Max divergence:  0.16E+00 at (  64,   1, 192)
       Min divergence: -0.78E+00 at (  67,   1,  67)
       Max VN number:   0.45E+00 at ( 194,   1, 194)
       Mesh    2
       Max CFL number:  0.32E+00 at (  45,   1,  46)
       Max divergence:  0.16E+00 at (  64,   1, 192)
       Min divergence: -0.78E+00 at ( 195,   1, 195)
       Max VN number:   0.45E+00 at (  66,   1,  66)
       Mesh    3
       Max CFL number:  0.32E+00 at (  45,   1,  46)
       Max divergence:  0.16E+00 at (  64,   1, 192)
       Min divergence: -0.78E+00 at (  67,   1,  67)
       Max VN number:   0.45E+00 at ( 194,   1, 194)
       Mesh    4
       Max CFL number:  0.32E+00 at ( 174,   1, 173)
       Max divergence:  0.16E+00 at ( 192,   1,  64)
       Min divergence: -0.78E+00 at ( 195,   1, 195)
       Max VN number:   0.45E+00 at ( 194,   1, 194)
 
       Time Step       9   February 19, 2020  19:31:05
       Step Size:    0.122E-02 s, Total Time:       0.01 s
       Pressure Iterations:      1
       Maximum Velocity Error:  0.56E-16 on Mesh   1 at (   0   1 142)
       Maximum Pressure Error:  0.46E+00 on Mesh   2 at (  56   1  56)
       ScaRC: iterations   171, residual  0.76E-08, convergence rate   0.86E+00
       ---------------------------------------------------------------
       Mesh    1
       Max CFL number:  0.33E+00 at (  46,   1,  46)
       Max divergence:  0.17E+00 at (  64,   1, 192)
       Min divergence: -0.88E+00 at (  65,   1,  65)
       Max VN number:   0.45E+00 at ( 194,   1, 194)
       Mesh    2
       Max CFL number:  0.33E+00 at (  46,   1,  46)
       Max divergence:  0.17E+00 at ( 192,   1,  64)
       Min divergence: -0.88E+00 at ( 193,   1, 193)
       Max VN number:   0.45E+00 at (  66,   1,  66)
       Mesh    3
       Max CFL number:  0.33E+00 at (  46,   1,  46)
       Max divergence:  0.17E+00 at (  64,   1, 192)
       Min divergence: -0.88E+00 at ( 193,   1, 193)
       Max VN number:   0.45E+00 at ( 194,   1, 194)
       Mesh    4
       Max CFL number:  0.33E+00 at (  46,   1,  46)
       Max divergence:  0.17E+00 at (  64,   1, 192)
       Min divergence: -0.88E+00 at (  65,   1,  65)
       Max VN number:   0.45E+00 at ( 194,   1, 194)
 
       Time Step      10   February 19, 2020  19:31:13
       Step Size:    0.122E-02 s, Total Time:       0.01 s
       Pressure Iterations:      1
       Maximum Velocity Error:  0.11E-15 on Mesh   3 at (   0   1 130)
       Maximum Pressure Error:  0.46E+00 on Mesh   1 at ( 185   1 185)
       ScaRC: iterations   171, residual  0.87E-08, convergence rate   0.86E+00
       ---------------------------------------------------------------
       Mesh    1
       Max CFL number:  0.33E+00 at (  46,   1,  46)
       Max divergence:  0.19E+00 at (  68,   1, 196)
       Min divergence: -0.98E+00 at (  65,   1,  65)
       Max VN number:   0.45E+00 at ( 194,   1, 194)
       Mesh    2
       Max CFL number:  0.33E+00 at ( 174,   1, 174)
       Max divergence:  0.19E+00 at (  68,   1, 196)
       Min divergence: -0.98E+00 at ( 193,   1, 193)
       Max VN number:   0.45E+00 at (  66,   1,  66)
       Mesh    3
       Max CFL number:  0.33E+00 at (  46,   1,  46)
       Max divergence:  0.19E+00 at ( 196,   1,  68)
       Min divergence: -0.98E+00 at (  65,   1,  65)
       Max VN number:   0.45E+00 at (  66,   1,  66)
       Mesh    4
       Max CFL number:  0.33E+00 at ( 174,   1, 174)
       Max divergence:  0.19E+00 at (  68,   1, 196)
       Min divergence: -0.98E+00 at (  65,   1,  65)
       Max VN number:   0.45E+00 at ( 194,   1, 194)
 
       Time Step      20   February 19, 2020  19:32:36
       Step Size:    0.122E-02 s, Total Time:       0.02 s
       Pressure Iterations:      1
       Maximum Velocity Error:  0.56E-16 on Mesh   1 at (   0   1   2)
       Maximum Pressure Error:  0.50E+00 on Mesh   3 at ( 188   1 188)
       ScaRC: iterations   173, residual  0.78E-08, convergence rate   0.86E+00
       ---------------------------------------------------------------
       Mesh    1
       Max CFL number:  0.34E+00 at (  47,   1,  47)
       Max divergence:  0.39E+00 at ( 194,   1,  66)
       Min divergence: -0.19E+01 at (  66,   1,  66)
       Max VN number:   0.44E+00 at ( 196,   1, 196)
       Mesh    2
       Max CFL number:  0.34E+00 at ( 175,   1, 175)
       Max divergence:  0.39E+00 at ( 194,   1,  66)
       Min divergence: -0.19E+01 at ( 194,   1, 194)
       Max VN number:   0.44E+00 at ( 196,   1, 196)
       Mesh    3
       Max CFL number:  0.34E+00 at (  47,   1,  47)
       Max divergence:  0.39E+00 at (  66,   1, 194)
       Min divergence: -0.19E+01 at ( 194,   1, 194)
       Max VN number:   0.44E+00 at ( 196,   1, 196)
       Mesh    4
       Max CFL number:  0.34E+00 at (  47,   1,  47)
       Max divergence:  0.39E+00 at ( 194,   1,  66)
       Min divergence: -0.19E+01 at (  66,   1,  66)
       Max VN number:   0.44E+00 at (  68,   1,  68)
 
       Time Step      30   February 19, 2020  19:34:05
       Step Size:    0.122E-02 s, Total Time:       0.04 s
       Pressure Iterations:      1
       Maximum Velocity Error:  0.56E-16 on Mesh   1 at (   0   1   3)
       Maximum Pressure Error:  0.53E+00 on Mesh   1 at ( 191   1 191)
       ScaRC: iterations   175, residual  0.70E-08, convergence rate   0.86E+00
       ---------------------------------------------------------------
       Mesh    1
       Max CFL number:  0.35E+00 at (  49,   1,  48)
       Max divergence:  0.58E+00 at ( 195,   1,  67)
       Min divergence: -0.27E+01 at ( 196,   1, 196)
       Max VN number:   0.43E+00 at ( 197,   1, 197)
       Mesh    2
       Max CFL number:  0.35E+00 at ( 177,   1, 176)
       Max divergence:  0.58E+00 at (  67,   1, 195)
       Min divergence: -0.27E+01 at (  68,   1,  68)
       Max VN number:   0.43E+00 at ( 197,   1, 197)
       Mesh    3
       Max CFL number:  0.35E+00 at ( 176,   1, 177)
       Max divergence:  0.58E+00 at ( 195,   1,  67)
       Min divergence: -0.27E+01 at (  68,   1,  68)
       Max VN number:   0.43E+00 at ( 197,   1, 197)
       Mesh    4
       Max CFL number:  0.35E+00 at ( 176,   1, 177)
       Max divergence:  0.58E+00 at (  67,   1, 195)
       Min divergence: -0.27E+01 at ( 196,   1, 196)
       Max VN number:   0.43E+00 at (  69,   1,  69)
 
       Time Step      40   February 19, 2020  19:35:31
       Step Size:    0.122E-02 s, Total Time:       0.05 s
       Pressure Iterations:      1
       Maximum Velocity Error:  0.56E-16 on Mesh   1 at (   0   1 137)
       Maximum Pressure Error:  0.56E+00 on Mesh   4 at (  69   1  69)
       ScaRC: iterations   177, residual  0.65E-08, convergence rate   0.86E+00
       ---------------------------------------------------------------
       Mesh    1
       Max CFL number:  0.37E+00 at (  50,   1,  50)
       Max divergence:  0.77E+00 at ( 197,   1,  69)
       Min divergence: -0.35E+01 at (  72,   1,  72)
       Max VN number:   0.41E+00 at (  71,   1,  71)
       Mesh    2
       Max CFL number:  0.37E+00 at (  50,   1,  50)
       Max divergence:  0.77E+00 at ( 197,   1,  69)
       Min divergence: -0.35E+01 at (  72,   1,  72)
       Max VN number:   0.41E+00 at ( 199,   1, 199)
       Mesh    3
       Max CFL number:  0.37E+00 at ( 178,   1, 178)
       Max divergence:  0.77E+00 at (  69,   1, 197)
       Min divergence: -0.35E+01 at (  72,   1,  72)
       Max VN number:   0.41E+00 at ( 199,   1, 199)
       Mesh    4
       Max CFL number:  0.37E+00 at (  50,   1,  50)
       Max divergence:  0.77E+00 at (  69,   1, 197)
       Min divergence: -0.35E+01 at (  72,   1,  72)
       Max VN number:   0.41E+00 at ( 199,   1, 199)
 
       Time Step      50   February 19, 2020  19:36:58
       Step Size:    0.134E-02 s, Total Time:       0.06 s
       Pressure Iterations:      1
       Maximum Velocity Error:  0.56E-16 on Mesh   1 at (   0   1   4)
       Maximum Pressure Error:  0.64E+00 on Mesh   3 at (  71   1  71)
       ScaRC: iterations   178, residual  0.89E-08, convergence rate   0.85E+00
       ---------------------------------------------------------------
       Mesh    1
       Max CFL number:  0.42E+00 at (  51,   1,  51)
       Max divergence:  0.97E+00 at ( 198,   1,  70)
       Min divergence: -0.41E+01 at (  71,   1,  71)
       Max VN number:   0.43E+00 at (  72,   1,  72)
       Mesh    2
       Max CFL number:  0.42E+00 at ( 179,   1, 179)
       Max divergence:  0.97E+00 at (  70,   1, 198)
       Min divergence: -0.41E+01 at ( 199,   1, 199)
       Max VN number:   0.43E+00 at ( 200,   1, 200)
       Mesh    3
       Max CFL number:  0.42E+00 at ( 179,   1, 179)
       Max divergence:  0.97E+00 at (  70,   1, 198)
       Min divergence: -0.41E+01 at (  71,   1,  71)
       Max VN number:   0.43E+00 at ( 200,   1, 200)
       Mesh    4
       Max CFL number:  0.42E+00 at ( 179,   1, 179)
       Max divergence:  0.97E+00 at (  70,   1, 198)
       Min divergence: -0.41E+01 at ( 199,   1, 199)
       Max VN number:   0.43E+00 at ( 200,   1, 200)
 
       Time Step      60   February 19, 2020  19:38:20
       Step Size:    0.134E-02 s, Total Time:       0.07 s
       Pressure Iterations:      1
       Maximum Velocity Error:  0.11E-15 on Mesh   1 at (   0   1  72)
       Maximum Pressure Error:  0.62E+00 on Mesh   4 at (  72   1  72)
       ScaRC: iterations   179, residual  0.87E-08, convergence rate   0.85E+00
       ---------------------------------------------------------------
       Mesh    1
       Max CFL number:  0.43E+00 at ( 180,   1, 180)
       Max divergence:  0.12E+01 at ( 200,   1,  72)
       Min divergence: -0.47E+01 at ( 201,   1, 201)
       Max VN number:   0.41E+00 at ( 202,   1, 202)
       Mesh    2
       Max CFL number:  0.43E+00 at ( 180,   1, 180)
       Max divergence:  0.12E+01 at ( 200,   1,  72)
       Min divergence: -0.47E+01 at (  73,   1,  73)
       Max VN number:   0.41E+00 at (  74,   1,  74)
       Mesh    3
       Max CFL number:  0.43E+00 at (  52,   1,  52)
       Max divergence:  0.12E+01 at ( 200,   1,  72)
       Min divergence: -0.47E+01 at ( 201,   1, 201)
       Max VN number:   0.41E+00 at ( 202,   1, 202)
       Mesh    4
       Max CFL number:  0.43E+00 at (  52,   1,  52)
       Max divergence:  0.12E+01 at ( 200,   1,  72)
       Min divergence: -0.47E+01 at (  73,   1,  73)
       Max VN number:   0.41E+00 at ( 202,   1, 202)
 
       Time Step      70   February 19, 2020  19:39:47
       Step Size:    0.134E-02 s, Total Time:       0.09 s
       Pressure Iterations:      1
       Maximum Velocity Error:  0.11E-15 on Mesh   1 at (   0   1  57)
       Maximum Pressure Error:  0.58E+00 on Mesh   4 at (  74   1  74)
       ScaRC: iterations   181, residual  0.83E-08, convergence rate   0.85E+00
       ---------------------------------------------------------------
       Mesh    1
       Max CFL number:  0.44E+00 at (  53,   1,  53)
       Max divergence:  0.14E+01 at (  78,   1, 206)
       Min divergence: -0.51E+01 at (  75,   1,  75)
       Max VN number:   0.38E+00 at (  76,   1,  76)
       Mesh    2
       Max CFL number:  0.44E+00 at (  53,   1,  53)
       Max divergence:  0.14E+01 at (  78,   1, 206)
       Min divergence: -0.51E+01 at ( 203,   1, 203)
       Max VN number:   0.38E+00 at (  76,   1,  76)
       Mesh    3
       Max CFL number:  0.44E+00 at ( 181,   1, 181)
       Max divergence:  0.14E+01 at (  78,   1, 206)
       Min divergence: -0.51E+01 at ( 203,   1, 203)
       Max VN number:   0.38E+00 at ( 204,   1, 204)
       Mesh    4
       Max CFL number:  0.44E+00 at (  53,   1,  53)
       Max divergence:  0.14E+01 at (  78,   1, 206)
       Min divergence: -0.51E+01 at (  75,   1,  75)
       Max VN number:   0.38E+00 at ( 204,   1, 204)
 
       Time Step      80   February 19, 2020  19:41:12
       Step Size:    0.134E-02 s, Total Time:       0.10 s
       Pressure Iterations:      1
       Maximum Velocity Error:  0.11E-15 on Mesh   1 at (   0   1  69)
       Maximum Pressure Error:  0.52E+00 on Mesh   4 at (  76   1  76)
       ScaRC: iterations   183, residual  0.68E-08, convergence rate   0.85E+00
       ---------------------------------------------------------------
       Mesh    1
       Max CFL number:  0.45E+00 at ( 182,   1, 182)
       Max divergence:  0.16E+01 at (  80,   1, 208)
       Min divergence: -0.54E+01 at (  76,   1,  76)
       Max VN number:   0.36E+00 at ( 205,   1, 205)
       Mesh    2
       Max CFL number:  0.45E+00 at ( 182,   1, 182)
       Max divergence:  0.16E+01 at (  80,   1, 208)
       Min divergence: -0.54E+01 at (  76,   1,  76)
       Max VN number:   0.36E+00 at (  77,   1,  77)
       Mesh    3
       Max CFL number:  0.45E+00 at ( 182,   1, 182)
       Max divergence:  0.16E+01 at ( 208,   1,  80)
       Min divergence: -0.54E+01 at ( 204,   1, 204)
       Max VN number:   0.36E+00 at ( 205,   1, 205)
       Mesh    4
       Max CFL number:  0.45E+00 at (  54,   1,  54)
       Max divergence:  0.16E+01 at ( 208,   1,  80)
       Min divergence: -0.54E+01 at ( 204,   1, 204)
       Max VN number:   0.36E+00 at (  77,   1,  77)
 
       Time Step      90   February 19, 2020  19:42:38
       Step Size:    0.134E-02 s, Total Time:       0.11 s
       Pressure Iterations:      1
       Maximum Velocity Error:  0.11E-15 on Mesh   1 at (   0   1  49)
       Maximum Pressure Error:  0.45E+00 on Mesh   4 at ( 210   1 210)
       ScaRC: iterations   184, residual  0.78E-08, convergence rate   0.85E+00
       ---------------------------------------------------------------
       Mesh    1
       Max CFL number:  0.45E+00 at (  55,   1,  55)
       Max divergence:  0.18E+01 at (  77,   1, 205)
       Min divergence: -0.55E+01 at ( 206,   1, 206)
       Max VN number:   0.33E+00 at (  79,   1,  79)
       Mesh    2
       Max CFL number:  0.45E+00 at (  55,   1,  55)
       Max divergence:  0.18E+01 at (  77,   1, 205)
       Min divergence: -0.55E+01 at ( 206,   1, 206)
       Max VN number:   0.33E+00 at (  79,   1,  79)
       Mesh    3
       Max CFL number:  0.45E+00 at (  55,   1,  55)
       Max divergence:  0.18E+01 at ( 205,   1,  77)
       Min divergence: -0.55E+01 at ( 206,   1, 206)
       Max VN number:   0.33E+00 at (  79,   1,  79)
       Mesh    4
       Max CFL number:  0.45E+00 at (  55,   1,  55)
       Max divergence:  0.18E+01 at (  77,   1, 205)
       Min divergence: -0.55E+01 at ( 206,   1, 206)
       Max VN number:   0.33E+00 at (  79,   1,  79)
 
       Time Step     100   February 19, 2020  19:44:04
       Step Size:    0.134E-02 s, Total Time:       0.13 s
       Pressure Iterations:      1
       Maximum Velocity Error:  0.11E-15 on Mesh   1 at (   0   1  57)
       Maximum Pressure Error:  0.39E+00 on Mesh   2 at (  83   1  83)
       ScaRC: iterations   185, residual  0.70E-08, convergence rate   0.85E+00
       ---------------------------------------------------------------
       Mesh    1
       Max CFL number:  0.46E+00 at ( 184,   1, 184)
       Max divergence:  0.21E+01 at ( 207,   1,  79)
       Min divergence: -0.56E+01 at ( 208,   1, 208)
       Max VN number:   0.31E+00 at ( 209,   1, 209)
       Mesh    2
       Max CFL number:  0.46E+00 at (  56,   1,  56)
       Max divergence:  0.21E+01 at (  79,   1, 207)
       Min divergence: -0.56E+01 at (  80,   1,  80)
       Max VN number:   0.31E+00 at (  81,   1,  81)
       Mesh    3
       Max CFL number:  0.46E+00 at (  56,   1,  56)
       Max divergence:  0.21E+01 at ( 207,   1,  79)
       Min divergence: -0.56E+01 at (  80,   1,  80)
       Max VN number:   0.31E+00 at ( 209,   1, 209)
       Mesh    4
       Max CFL number:  0.46E+00 at ( 184,   1, 184)
       Max divergence:  0.21E+01 at ( 207,   1,  79)
       Min divergence: -0.56E+01 at ( 208,   1, 208)
       Max VN number:   0.31E+00 at ( 209,   1, 209)
 
       Time Step     200   February 19, 2020  19:58:52
       Step Size:    0.134E-02 s, Total Time:       0.26 s
       Pressure Iterations:      1
       Maximum Velocity Error:  0.11E-15 on Mesh   1 at (   0   1  69)
       Maximum Pressure Error:  0.33E-01 on Mesh   2 at ( 225   1  97)
       ScaRC: iterations   188, residual  0.98E-08, convergence rate   0.85E+00
       ---------------------------------------------------------------
       Mesh    1
       Max CFL number:  0.46E+00 at (   1,   1, 129)
       Max divergence:  0.44E+01 at (  98,   1, 226)
       Min divergence: -0.40E+01 at (  98,   1,  98)
       Max VN number:   0.17E+00 at ( 226,   1,  98)
       Mesh    2
       Max CFL number:  0.46E+00 at (   1,   1, 129)
       Max divergence:  0.44E+01 at (  98,   1, 226)
       Min divergence: -0.40E+01 at (  98,   1,  98)
       Max VN number:   0.17E+00 at ( 226,   1,  98)
       Mesh    3
       Max CFL number:  0.46E+00 at ( 129,   1,   1)
       Max divergence:  0.44E+01 at (  98,   1, 226)
       Min divergence: -0.40E+01 at (  98,   1,  98)
       Max VN number:   0.17E+00 at (  98,   1, 226)
       Mesh    4
       Max CFL number:  0.46E+00 at ( 129,   1,   1)
       Max divergence:  0.44E+01 at (  98,   1, 226)
       Min divergence: -0.40E+01 at (  98,   1,  98)
       Max VN number:   0.17E+00 at (  98,   1, 226)
 
       Time Step     300   February 19, 2020  20:13:23
       Step Size:    0.134E-02 s, Total Time:       0.40 s
       Pressure Iterations:      1
       Maximum Velocity Error:  0.11E-15 on Mesh   1 at (   0   1 119)
       Maximum Pressure Error:  0.51E+00 on Mesh   1 at ( 117   1 245)
       ScaRC: iterations   180, residual  0.86E-08, convergence rate   0.86E+00
       ---------------------------------------------------------------
       Mesh    1
       Max CFL number:  0.45E+00 at (  11,   1, 139)
       Max divergence:  0.54E+01 at ( 243,   1, 115)
       Min divergence: -0.17E+01 at ( 243,   1, 243)
       Max VN number:   0.35E+00 at ( 243,   1, 115)
       Mesh    2
       Max CFL number:  0.45E+00 at (  11,   1, 139)
       Max divergence:  0.54E+01 at ( 115,   1, 243)
       Min divergence: -0.17E+01 at ( 115,   1, 115)
       Max VN number:   0.35E+00 at ( 243,   1, 115)
       Mesh    3
       Max CFL number:  0.45E+00 at (  11,   1, 139)
       Max divergence:  0.54E+01 at ( 115,   1, 243)
       Min divergence: -0.17E+01 at ( 115,   1, 115)
       Max VN number:   0.35E+00 at ( 243,   1, 115)
       Mesh    4
       Max CFL number:  0.45E+00 at ( 139,   1,  11)
       Max divergence:  0.54E+01 at ( 115,   1, 243)
       Min divergence: -0.17E+01 at ( 243,   1, 243)
       Max VN number:   0.35E+00 at ( 115,   1, 243)
 
       Time Step     400   February 19, 2020  20:27:46
       Step Size:    0.134E-02 s, Total Time:       0.53 s
       Pressure Iterations:      1
       Maximum Velocity Error:  0.56E-16 on Mesh   1 at (   0   1  13)
       Maximum Pressure Error:  0.58E+00 on Mesh   4 at ( 126   1 254)
       ScaRC: iterations   183, residual  0.77E-08, convergence rate   0.85E+00
       ---------------------------------------------------------------
       Mesh    1
       Max CFL number:  0.38E+00 at ( 112,   1, 240)
       Max divergence:  0.49E+00 at (   7,   1,   7)
       Min divergence: -0.23E+01 at (   3,   1, 131)
       Max VN number:   0.48E+00 at (   4,   1, 132)
       Mesh    2
       Max CFL number:  0.38E+00 at ( 240,   1, 112)
       Max divergence:  0.49E+00 at (   7,   1,   7)
       Min divergence: -0.23E+01 at (   3,   1, 131)
       Max VN number:   0.48E+00 at ( 132,   1,   4)
       Mesh    3
       Max CFL number:  0.38E+00 at ( 240,   1, 112)
       Max divergence:  0.49E+00 at ( 135,   1, 135)
       Min divergence: -0.23E+01 at (   3,   1, 131)
       Max VN number:   0.48E+00 at (   4,   1, 132)
       Mesh    4
       Max CFL number:  0.38E+00 at ( 112,   1, 240)
       Max divergence:  0.49E+00 at ( 135,   1, 135)
       Min divergence: -0.23E+01 at ( 131,   1,   3)
       Max VN number:   0.48E+00 at (   4,   1, 132)
 
