
 Fire Dynamics Simulator

 Current Date     : February 19, 2020  19:29:45
 Revision         : -master
 Revision Date    : Wed Feb 19 18:38:00 2020 +0100
 Compiler         : Intel ifort 18.0.1
 Compilation Date : Feb 19, 2020 18:48:59

 MPI Enabled;    Number of MPI Processes:      16
 OpenMP Enabled; Number of OpenMP Threads:      1

 MPI version: 3.1
 MPI library version: Intel(R) MPI Library 2018 Update 1 for Linux* OS


 Job TITLE        : Shunn et al. (2012) JCP, Problem 3, FLUX_LIMITER=CHARM
 Job ID string    : shunn3_16mesh_512_scarc


 Grid Dimensions, Mesh     1

   Cells in the X Direction           128
   Cells in the Y Direction             1
   Cells in the Z Direction           128
   Number of Grid Cells             16384


 Physical Dimensions, Mesh     1

   Length (m)                       0.500
   Width  (m)                       0.100
   Height (m)                       0.500
   Initial Time Step (s)            0.002

 Grid Dimensions, Mesh     2

   Cells in the X Direction           128
   Cells in the Y Direction             1
   Cells in the Z Direction           128
   Number of Grid Cells             16384


 Physical Dimensions, Mesh     2

   Length (m)                       0.500
   Width  (m)                       0.100
   Height (m)                       0.500
   Initial Time Step (s)            0.002

 Grid Dimensions, Mesh     3

   Cells in the X Direction           128
   Cells in the Y Direction             1
   Cells in the Z Direction           128
   Number of Grid Cells             16384


 Physical Dimensions, Mesh     3

   Length (m)                       0.500
   Width  (m)                       0.100
   Height (m)                       0.500
   Initial Time Step (s)            0.002

 Grid Dimensions, Mesh     4

   Cells in the X Direction           128
   Cells in the Y Direction             1
   Cells in the Z Direction           128
   Number of Grid Cells             16384


 Physical Dimensions, Mesh     4

   Length (m)                       0.500
   Width  (m)                       0.100
   Height (m)                       0.500
   Initial Time Step (s)            0.002

 Grid Dimensions, Mesh     5

   Cells in the X Direction           128
   Cells in the Y Direction             1
   Cells in the Z Direction           128
   Number of Grid Cells             16384


 Physical Dimensions, Mesh     5

   Length (m)                       0.500
   Width  (m)                       0.100
   Height (m)                       0.500
   Initial Time Step (s)            0.002

 Grid Dimensions, Mesh     6

   Cells in the X Direction           128
   Cells in the Y Direction             1
   Cells in the Z Direction           128
   Number of Grid Cells             16384


 Physical Dimensions, Mesh     6

   Length (m)                       0.500
   Width  (m)                       0.100
   Height (m)                       0.500
   Initial Time Step (s)            0.002

 Grid Dimensions, Mesh     7

   Cells in the X Direction           128
   Cells in the Y Direction             1
   Cells in the Z Direction           128
   Number of Grid Cells             16384


 Physical Dimensions, Mesh     7

   Length (m)                       0.500
   Width  (m)                       0.100
   Height (m)                       0.500
   Initial Time Step (s)            0.002

 Grid Dimensions, Mesh     8

   Cells in the X Direction           128
   Cells in the Y Direction             1
   Cells in the Z Direction           128
   Number of Grid Cells             16384


 Physical Dimensions, Mesh     8

   Length (m)                       0.500
   Width  (m)                       0.100
   Height (m)                       0.500
   Initial Time Step (s)            0.002

 Grid Dimensions, Mesh     9

   Cells in the X Direction           128
   Cells in the Y Direction             1
   Cells in the Z Direction           128
   Number of Grid Cells             16384


 Physical Dimensions, Mesh     9

   Length (m)                       0.500
   Width  (m)                       0.100
   Height (m)                       0.500
   Initial Time Step (s)            0.002

 Grid Dimensions, Mesh    10

   Cells in the X Direction           128
   Cells in the Y Direction             1
   Cells in the Z Direction           128
   Number of Grid Cells             16384


 Physical Dimensions, Mesh    10

   Length (m)                       0.500
   Width  (m)                       0.100
   Height (m)                       0.500
   Initial Time Step (s)            0.002

 Grid Dimensions, Mesh    11

   Cells in the X Direction           128
   Cells in the Y Direction             1
   Cells in the Z Direction           128
   Number of Grid Cells             16384


 Physical Dimensions, Mesh    11

   Length (m)                       0.500
   Width  (m)                       0.100
   Height (m)                       0.500
   Initial Time Step (s)            0.002

 Grid Dimensions, Mesh    12

   Cells in the X Direction           128
   Cells in the Y Direction             1
   Cells in the Z Direction           128
   Number of Grid Cells             16384


 Physical Dimensions, Mesh    12

   Length (m)                       0.500
   Width  (m)                       0.100
   Height (m)                       0.500
   Initial Time Step (s)            0.002

 Grid Dimensions, Mesh    13

   Cells in the X Direction           128
   Cells in the Y Direction             1
   Cells in the Z Direction           128
   Number of Grid Cells             16384


 Physical Dimensions, Mesh    13

   Length (m)                       0.500
   Width  (m)                       0.100
   Height (m)                       0.500
   Initial Time Step (s)            0.002

 Grid Dimensions, Mesh    14

   Cells in the X Direction           128
   Cells in the Y Direction             1
   Cells in the Z Direction           128
   Number of Grid Cells             16384


 Physical Dimensions, Mesh    14

   Length (m)                       0.500
   Width  (m)                       0.100
   Height (m)                       0.500
   Initial Time Step (s)            0.002

 Grid Dimensions, Mesh    15

   Cells in the X Direction           128
   Cells in the Y Direction             1
   Cells in the Z Direction           128
   Number of Grid Cells             16384


 Physical Dimensions, Mesh    15

   Length (m)                       0.500
   Width  (m)                       0.100
   Height (m)                       0.500
   Initial Time Step (s)            0.002

 Grid Dimensions, Mesh    16

   Cells in the X Direction           128
   Cells in the Y Direction             1
   Cells in the Z Direction           128
   Number of Grid Cells             16384


 Physical Dimensions, Mesh    16

   Length (m)                       0.500
   Width  (m)                       0.100
   Height (m)                       0.500
   Initial Time Step (s)            0.002

Total Number of Grid Cells        262144


 Miscellaneous Parameters

   Simulation Start Time (s)          0.0
   Simulation End Time (s)            1.0
   Ambient Temperature (C):         20.00


 Mass Fraction Transformation Matrix to Convert Species Mixtures (Columns) to Primitive Species (Rows)

                         BACKGROU  SCALAR  
   BACKGROUND            1.000000  0.000000
   SCALAR                0.000000  1.000000


 Primitive Species Information

   BACKGROUND
   Gas Species
   Molecular Weight (g/mol)            50.00000
   Ambient Density (kg/m^3)            5.000
   Enthalpy of Formation (J/kg)        2.98E+05

   SCALAR
   Gas Species
   Molecular Weight (g/mol)            10.00000
   Ambient Density (kg/m^3)            1.000
   Enthalpy of Formation (J/kg)        2.98E+05


 Tracked (Lumped) Species Information

   BACKGROUND
   Molecular Weight (g/mol)            50.00000
   Ambient Density (kg/m^3)            5.000
   Initial Mass Fraction               1.000
   Enthalpy of Formation (J/kg)      2.98E+05

   Sub Species                    Mass Fraction     Mole Fraction
   BACKGROUND                     1.000000E+00      1.000000E+00
 
     Viscosity (kg/m/s) Ambient,  293 K:  1.00E-03
                                  500 K:  1.00E-03
                                 1000 K:  1.00E-03
                                 1500 K:  1.00E-03
   Therm. Cond. (W/m/K) Ambient,  293 K:  1.41E+00
                                  500 K:  1.41E+00
                                 1000 K:  1.41E+00
                                 1500 K:  1.41E+00
        Enthalpy (J/kg) Ambient,  293 K:  2.93E+05
                                  500 K:  5.00E+05
                                 1000 K:  1.00E+06
                                 1500 K:  1.50E+06
    Spec. Heat (J/kg/K) Ambient,  293 K:  1.00E+03
                                  500 K:  1.00E+03
                                 1000 K:  1.00E+03
                                 1500 K:  1.00E+03
   Diff. Coeff. (m^2/s) Ambient,  293 K:  1.49E-05
                                  500 K:  3.69E-05
                                 1000 K:  1.17E-04
                                 1500 K:  2.30E-04

   SCALAR
   Molecular Weight (g/mol)            10.00000
   Ambient Density (kg/m^3)            1.000
   Initial Mass Fraction               0.000
   Enthalpy of Formation (J/kg)      2.98E+05

   Sub Species                    Mass Fraction     Mole Fraction
   SCALAR                         1.000000E+00      1.000000E+00
 
     Viscosity (kg/m/s) Ambient,  293 K:  1.00E-03
                                  500 K:  1.00E-03
                                 1000 K:  1.00E-03
                                 1500 K:  1.00E-03
   Therm. Cond. (W/m/K) Ambient,  293 K:  1.41E+00
                                  500 K:  1.41E+00
                                 1000 K:  1.41E+00
                                 1500 K:  1.41E+00
        Enthalpy (J/kg) Ambient,  293 K:  2.93E+05
                                  500 K:  5.00E+05
                                 1000 K:  1.00E+06
                                 1500 K:  1.50E+06
    Spec. Heat (J/kg/K) Ambient,  293 K:  1.00E+03
                                  500 K:  1.00E+03
                                 1000 K:  1.00E+03
                                 1500 K:  1.00E+03
   Diff. Coeff. (m^2/s) Ambient,  293 K:  2.57E-05
                                  500 K:  6.40E-05
                                 1000 K:  2.03E-04
                                 1500 K:  3.98E-04


 Material Information


 Surface Conditions

   0 INERT (DEFAULT)

   1 OPEN
     Passive Vent to Atmosphere

   2 MIRROR
     Symmetry Plane

   3 INTERPOLATED

   4 PERIODIC

   5 HVAC

   6 MASSLESS TRACER

   7 DROPLET

   8 EVACUATION_OUTFLOW
     Normal Velocity (m/s)         0.000

   9 MASSLESS TARGET

  10 PERIODIC WIND

  11 SLICE


 Device Coordinates

     1 Coords:     -0.000039      0.000000     -0.000039, Make: null, ID: scarc-iter, Quantity: SCARC ITERATIONS
     2 Coords:     -0.000039      0.000000     -0.000039, Make: null, ID: scarc-rate, Quantity: SCARC CONVERGENCE RATE
     3 Coords:     -0.000039      0.000000     -0.000039, Make: null, ID: scarc-res, Quantity: SCARC RESIDUAL


 Slice File Information, Mesh     1

   Sampling Interval (s)             0.001

   1 Nodes:   0 128   1   1   0 128, Quantity: VELOCITY
   2 Nodes:   0 128   1   1   0 128, Quantity: U-VELOCITY
   3 Nodes:   0 128   1   1   0 128, Quantity: W-VELOCITY
   4 Nodes:   0 128   1   1   0 128, Quantity: DENSITY
   5 Nodes:   0 128   1   1   0 128, Quantity: DIVERGENCE
   6 Nodes:   0 128   1   1   0 128, Quantity: SCALAR MASS FRACTION
   7 Nodes:   0 128   1   1   0 128, Quantity: TEMPERATURE
   8 Nodes:   0 128   1   1   0 128, Quantity: H
   9 Nodes:   0 128   1   1   0 128, Quantity: PRESSURE
  10 Nodes:   0 128   1   1   0 128, Quantity: VISCOSITY


 SCARC Information

   Discretization        STRUCTURED
   Global solver             KRYLOV
   Storage technique        COMPACT
   Preconditioner           PARDISO
   Max iterations              1000
   Stopping accuracy       0.10E-07
 
 

 Run Time Diagnostics

       Time Step       1   February 19, 2020  19:29:49
       Step Size:    0.122E-02 s, Total Time:      0.001 s
       Pressure Iterations:      1
       Maximum Velocity Error:  0.56E-16 on Mesh   1 at ( 129   1  10)
       Maximum Pressure Error:  0.48E+00 on Mesh  16 at (  75   1  75)
       ScaRC: iterations   202, residual  0.70E-08, convergence rate   0.88E+00
       ---------------------------------------------------------------
       Mesh    1
       Max CFL number:  0.31E+00 at (  44,   1,  45)
       Max divergence:  0.11E-01 at (  65,   1,   1)
       Min divergence: -0.11E+00 at (  66,   1,  66)
       Max VN number:   0.45E+00 at (  65,   1,  65)
       Mesh    2
       Max CFL number:  0.31E+00 at (  65,   1, 128)
       Max divergence:  0.20E-01 at (  66,   1,  66)
       Min divergence:  0.38E-05 at (   1,   1,   1)
       Max VN number:   0.15E+00 at (   1,   1,   1)
       Mesh    3
       Max CFL number:  0.31E+00 at (  44,   1,  45)
       Max divergence:  0.11E-01 at (   1,   1,  65)
       Min divergence: -0.11E+00 at (  66,   1,  66)
       Max VN number:   0.45E+00 at (  65,   1,  65)
       Mesh    4
       Max CFL number:  0.31E+00 at (  65,   1, 128)
       Max divergence:  0.20E-01 at (  66,   1,  66)
       Min divergence:  0.38E-05 at (   1,   1,   1)
       Max VN number:   0.15E+00 at (   1,   1,   1)
       Mesh    5
       Max CFL number:  0.31E+00 at ( 128,   1,  65)
       Max divergence:  0.20E-01 at (  66,   1,  66)
       Min divergence:  0.38E-05 at (   1,   1,   1)
       Max VN number:   0.15E+00 at (   1,   1,   1)
       Mesh    6
       Max CFL number:  0.31E+00 at (  44,   1,  45)
       Max divergence:  0.11E-01 at (  65,   1,   1)
       Min divergence: -0.11E+00 at (  66,   1,  66)
       Max VN number:   0.45E+00 at (  65,   1,  65)
       Mesh    7
       Max CFL number:  0.31E+00 at ( 128,   1,  65)
       Max divergence:  0.20E-01 at (  66,   1,  66)
       Min divergence:  0.38E-05 at (   1,   1,   1)
       Max VN number:   0.15E+00 at (   1,   1,   1)
       Mesh    8
       Max CFL number:  0.31E+00 at (  44,   1,  45)
       Max divergence:  0.11E-01 at (   1,   1,  65)
       Min divergence: -0.11E+00 at (  66,   1,  66)
       Max VN number:   0.45E+00 at (  65,   1,  65)
       Mesh    9
       Max CFL number:  0.31E+00 at (  45,   1,  44)
       Max divergence:  0.11E-01 at (  65,   1,   1)
       Min divergence: -0.11E+00 at (  66,   1,  66)
       Max VN number:   0.45E+00 at (  65,   1,  65)
       Mesh   10
       Max CFL number:  0.31E+00 at (  65,   1, 128)
       Max divergence:  0.20E-01 at (  66,   1,  66)
       Min divergence:  0.38E-05 at (   1,   1,   1)
       Max VN number:   0.15E+00 at (   1,   1,   1)
       Mesh   11
       Max CFL number:  0.31E+00 at (  44,   1,  45)
       Max divergence:  0.11E-01 at (   1,   1,  65)
       Min divergence: -0.11E+00 at (  66,   1,  66)
       Max VN number:   0.45E+00 at (  65,   1,  65)
       Mesh   12
       Max CFL number:  0.31E+00 at ( 128,   1,  65)
       Max divergence:  0.20E-01 at (  66,   1,  66)
       Min divergence:  0.38E-05 at (   1,   1,   1)
       Max VN number:   0.15E+00 at (   1,   1,   1)
       Mesh   13
       Max CFL number:  0.31E+00 at ( 128,   1,  65)
       Max divergence:  0.20E-01 at (  66,   1,  66)
       Min divergence:  0.38E-05 at (   1,   1,   1)
       Max VN number:   0.15E+00 at (   1,   1,   1)
       Mesh   14
       Max CFL number:  0.31E+00 at (  45,   1,  44)
       Max divergence:  0.11E-01 at (  65,   1,   1)
       Min divergence: -0.11E+00 at (  66,   1,  66)
       Max VN number:   0.45E+00 at (  65,   1,  65)
       Mesh   15
       Max CFL number:  0.31E+00 at (  65,   1, 128)
       Max divergence:  0.20E-01 at (  66,   1,  66)
       Min divergence:  0.38E-05 at (   1,   1,   1)
       Max VN number:   0.15E+00 at (   1,   1,   1)
       Mesh   16
       Max CFL number:  0.31E+00 at (  44,   1,  45)
       Max divergence:  0.11E-01 at (   1,   1,  65)
       Min divergence: -0.11E+00 at (  66,   1,  66)
       Max VN number:   0.45E+00 at (  65,   1,  65)
 
       Time Step       2   February 19, 2020  19:29:51
       Step Size:    0.122E-02 s, Total Time:      0.002 s
       Pressure Iterations:      1
       Maximum Velocity Error:  0.56E-16 on Mesh   1 at ( 129   1   8)
       Maximum Pressure Error:  0.42E+00 on Mesh   1 at (  54   1  54)
       ScaRC: iterations   202, residual  0.92E-08, convergence rate   0.88E+00
       ---------------------------------------------------------------
       Mesh    1
       Max CFL number:  0.31E+00 at (  45,   1,  45)
       Max divergence:  0.21E-01 at (  65,   1,   1)
       Min divergence: -0.21E+00 at (  64,   1,  64)
       Max VN number:   0.45E+00 at (  65,   1,  65)
       Mesh    2
       Max CFL number:  0.31E+00 at ( 128,   1,  66)
       Max divergence:  0.40E-01 at (  64,   1,  64)
       Min divergence:  0.23E-05 at (   1,   1,   1)
       Max VN number:   0.15E+00 at (   1,   1,   1)
       Mesh    3
       Max CFL number:  0.31E+00 at (  45,   1,  45)
       Max divergence:  0.21E-01 at (   1,   1,  65)
       Min divergence: -0.21E+00 at (  64,   1,  64)
       Max VN number:   0.45E+00 at (  65,   1,  65)
       Mesh    4
       Max CFL number:  0.31E+00 at (  66,   1, 128)
       Max divergence:  0.40E-01 at (  64,   1,  64)
       Min divergence:  0.23E-05 at (   1,   1,   1)
       Max VN number:   0.15E+00 at (   1,   1,   1)
       Mesh    5
       Max CFL number:  0.31E+00 at (  66,   1, 128)
       Max divergence:  0.40E-01 at (  64,   1,  64)
       Min divergence:  0.23E-05 at (   1,   1,   1)
       Max VN number:   0.15E+00 at (   1,   1,   1)
       Mesh    6
       Max CFL number:  0.31E+00 at (  45,   1,  45)
       Max divergence:  0.21E-01 at (  65,   1,   1)
       Min divergence: -0.21E+00 at (  64,   1,  64)
       Max VN number:   0.45E+00 at (  65,   1,  65)
       Mesh    7
       Max CFL number:  0.31E+00 at (  66,   1, 128)
       Max divergence:  0.40E-01 at (  64,   1,  64)
       Min divergence:  0.23E-05 at (   1,   1,   1)
       Max VN number:   0.15E+00 at (   1,   1,   1)
       Mesh    8
       Max CFL number:  0.31E+00 at (  45,   1,  45)
       Max divergence:  0.21E-01 at (   1,   1,  65)
       Min divergence: -0.21E+00 at (  64,   1,  64)
       Max VN number:   0.45E+00 at (  65,   1,  65)
       Mesh    9
       Max CFL number:  0.31E+00 at (  45,   1,  45)
       Max divergence:  0.21E-01 at (  65,   1,   1)
       Min divergence: -0.21E+00 at (  64,   1,  64)
       Max VN number:   0.45E+00 at (  65,   1,  65)
       Mesh   10
       Max CFL number:  0.31E+00 at ( 128,   1,  66)
       Max divergence:  0.40E-01 at (  64,   1,  64)
       Min divergence:  0.23E-05 at (   1,   1,   1)
       Max VN number:   0.15E+00 at (   1,   1,   1)
       Mesh   11
       Max CFL number:  0.31E+00 at (  45,   1,  45)
       Max divergence:  0.21E-01 at (   1,   1,  65)
       Min divergence: -0.21E+00 at (  64,   1,  64)
       Max VN number:   0.45E+00 at (  65,   1,  65)
       Mesh   12
       Max CFL number:  0.31E+00 at (  66,   1, 128)
       Max divergence:  0.40E-01 at (  64,   1,  64)
       Min divergence:  0.23E-05 at (   1,   1,   1)
       Max VN number:   0.15E+00 at (   1,   1,   1)
       Mesh   13
       Max CFL number:  0.31E+00 at ( 128,   1,  66)
       Max divergence:  0.40E-01 at (  64,   1,  64)
       Min divergence:  0.23E-05 at (   1,   1,   1)
       Max VN number:   0.15E+00 at (   1,   1,   1)
       Mesh   14
       Max CFL number:  0.31E+00 at (  45,   1,  45)
       Max divergence:  0.21E-01 at (  65,   1,   1)
       Min divergence: -0.21E+00 at (  64,   1,  64)
       Max VN number:   0.45E+00 at (  65,   1,  65)
       Mesh   15
       Max CFL number:  0.31E+00 at (  66,   1, 128)
       Max divergence:  0.40E-01 at (  64,   1,  64)
       Min divergence:  0.23E-05 at (   1,   1,   1)
       Max VN number:   0.15E+00 at (   1,   1,   1)
       Mesh   16
       Max CFL number:  0.31E+00 at (  45,   1,  45)
       Max divergence:  0.21E-01 at (  65,   1,   1)
       Min divergence: -0.21E+00 at (  64,   1,  64)
       Max VN number:   0.45E+00 at (  65,   1,  65)
 
       Time Step       3   February 19, 2020  19:29:54
       Step Size:    0.122E-02 s, Total Time:      0.004 s
       Pressure Iterations:      1
       Maximum Velocity Error:  0.56E-16 on Mesh   1 at ( 129   1   1)
       Maximum Pressure Error:  0.43E+00 on Mesh  11 at (  54   1  54)
       ScaRC: iterations   203, residual  0.96E-08, convergence rate   0.88E+00
       ---------------------------------------------------------------
       Mesh    1
       Max CFL number:  0.32E+00 at (  45,   1,  45)
       Max divergence:  0.32E-01 at (   1,   1,  65)
       Min divergence: -0.31E+00 at (  64,   1,  64)
       Max VN number:   0.45E+00 at (  65,   1,  65)
       Mesh    2
       Max CFL number:  0.31E+00 at ( 128,   1,  66)
       Max divergence:  0.59E-01 at (  64,   1,  64)
       Min divergence:  0.98E-07 at (   1,   1,   1)
       Max VN number:   0.15E+00 at (   1,   1,   1)
       Mesh    3
       Max CFL number:  0.32E+00 at (  45,   1,  45)
       Max divergence:  0.32E-01 at (   1,   1,  65)
       Min divergence: -0.31E+00 at (  64,   1,  64)
       Max VN number:   0.45E+00 at (  65,   1,  65)
       Mesh    4
       Max CFL number:  0.31E+00 at (  66,   1, 128)
       Max divergence:  0.59E-01 at (  64,   1,  64)
       Min divergence:  0.98E-07 at (   1,   1,   1)
       Max VN number:   0.15E+00 at (   1,   1,   1)
       Mesh    5
       Max CFL number:  0.31E+00 at (  66,   1, 128)
       Max divergence:  0.59E-01 at (  64,   1,  64)
       Min divergence:  0.98E-07 at (   1,   1,   1)
       Max VN number:   0.15E+00 at (   1,   1,   1)
       Mesh    6
       Max CFL number:  0.32E+00 at (  45,   1,  45)
       Max divergence:  0.32E-01 at (   1,   1,  65)
       Min divergence: -0.31E+00 at (  64,   1,  64)
       Max VN number:   0.45E+00 at (  65,   1,  65)
       Mesh    7
       Max CFL number:  0.31E+00 at (  66,   1, 128)
       Max divergence:  0.59E-01 at (  64,   1,  64)
       Min divergence:  0.98E-07 at (   1,   1,   1)
       Max VN number:   0.15E+00 at (   1,   1,   1)
       Mesh    8
       Max CFL number:  0.32E+00 at (  45,   1,  45)
       Max divergence:  0.32E-01 at (   1,   1,  65)
       Min divergence: -0.31E+00 at (  64,   1,  64)
       Max VN number:   0.45E+00 at (  65,   1,  65)
       Mesh    9
       Max CFL number:  0.32E+00 at (  45,   1,  45)
       Max divergence:  0.32E-01 at (  65,   1,   1)
       Min divergence: -0.31E+00 at (  64,   1,  64)
       Max VN number:   0.45E+00 at (  65,   1,  65)
       Mesh   10
       Max CFL number:  0.31E+00 at ( 128,   1,  66)
       Max divergence:  0.59E-01 at (  64,   1,  64)
       Min divergence:  0.98E-07 at (   1,   1,   1)
       Max VN number:   0.15E+00 at (   1,   1,   1)
       Mesh   11
       Max CFL number:  0.32E+00 at (  45,   1,  45)
       Max divergence:  0.32E-01 at (   1,   1,  65)
       Min divergence: -0.31E+00 at (  64,   1,  64)
       Max VN number:   0.45E+00 at (  65,   1,  65)
       Mesh   12
       Max CFL number:  0.31E+00 at (  66,   1, 128)
       Max divergence:  0.59E-01 at (  64,   1,  64)
       Min divergence:  0.98E-07 at (   1,   1,   1)
       Max VN number:   0.15E+00 at (   1,   1,   1)
       Mesh   13
       Max CFL number:  0.31E+00 at ( 128,   1,  66)
       Max divergence:  0.59E-01 at (  64,   1,  64)
       Min divergence:  0.98E-07 at (   1,   1,   1)
       Max VN number:   0.15E+00 at (   1,   1,   1)
       Mesh   14
       Max CFL number:  0.32E+00 at (  45,   1,  45)
       Max divergence:  0.32E-01 at (  65,   1,   1)
       Min divergence: -0.31E+00 at (  64,   1,  64)
       Max VN number:   0.45E+00 at (  65,   1,  65)
       Mesh   15
       Max CFL number:  0.31E+00 at (  66,   1, 128)
       Max divergence:  0.59E-01 at (  64,   1,  64)
       Min divergence:  0.98E-07 at (   1,   1,   1)
       Max VN number:   0.15E+00 at (   1,   1,   1)
       Mesh   16
       Max CFL number:  0.32E+00 at (  45,   1,  45)
       Max divergence:  0.32E-01 at (   1,   1,  65)
       Min divergence: -0.31E+00 at (  64,   1,  64)
       Max VN number:   0.45E+00 at (  65,   1,  65)
 
       Time Step       4   February 19, 2020  19:29:57
       Step Size:    0.122E-02 s, Total Time:      0.005 s
       Pressure Iterations:      1
       Maximum Velocity Error:  0.11E-15 on Mesh  14 at ( 129   1   1)
       Maximum Pressure Error:  0.43E+00 on Mesh   8 at (  55   1  55)
       ScaRC: iterations   204, residual  0.91E-08, convergence rate   0.88E+00
       ---------------------------------------------------------------
       Mesh    1
       Max CFL number:  0.32E+00 at (  45,   1,  45)
       Max divergence:  0.43E-01 at (  65,   1,   1)
       Min divergence: -0.41E+00 at (  64,   1,  64)
       Max VN number:   0.45E+00 at (  65,   1,  65)
       Mesh    2
       Max CFL number:  0.32E+00 at ( 128,   1,  66)
       Max divergence:  0.79E-01 at (  64,   1,  64)
       Min divergence:  0.20E-05 at (   1,   1,   1)
       Max VN number:   0.15E+00 at (  65,   1,   1)
       Mesh    3
       Max CFL number:  0.32E+00 at (  45,   1,  45)
       Max divergence:  0.43E-01 at (   1,   1,  65)
       Min divergence: -0.41E+00 at (  64,   1,  64)
       Max VN number:   0.45E+00 at (  65,   1,  65)
       Mesh    4
       Max CFL number:  0.32E+00 at ( 128,   1,  66)
       Max divergence:  0.79E-01 at (  64,   1,  64)
       Min divergence:  0.20E-05 at (   1,   1,   1)
       Max VN number:   0.15E+00 at (   1,   1,  65)
       Mesh    5
       Max CFL number:  0.32E+00 at (  66,   1, 128)
       Max divergence:  0.79E-01 at (  64,   1,  64)
       Min divergence:  0.20E-05 at (   1,   1,   1)
       Max VN number:   0.15E+00 at (   1,   1,  65)
       Mesh    6
       Max CFL number:  0.32E+00 at (  45,   1,  45)
       Max divergence:  0.43E-01 at (   1,   1,  65)
       Min divergence: -0.41E+00 at (  64,   1,  64)
       Max VN number:   0.45E+00 at (  65,   1,  65)
       Mesh    7
       Max CFL number:  0.32E+00 at (  66,   1, 128)
       Max divergence:  0.79E-01 at (  64,   1,  64)
       Min divergence:  0.20E-05 at (   1,   1,   1)
       Max VN number:   0.15E+00 at (   1,   1,  65)
       Mesh    8
       Max CFL number:  0.32E+00 at (  45,   1,  45)
       Max divergence:  0.43E-01 at (   1,   1,  65)
       Min divergence: -0.41E+00 at (  64,   1,  64)
       Max VN number:   0.45E+00 at (  65,   1,  65)
       Mesh    9
       Max CFL number:  0.32E+00 at (  45,   1,  45)
       Max divergence:  0.43E-01 at (  65,   1,   1)
       Min divergence: -0.41E+00 at (  64,   1,  64)
       Max VN number:   0.45E+00 at (  65,   1,  65)
       Mesh   10
       Max CFL number:  0.32E+00 at (  66,   1, 128)
       Max divergence:  0.79E-01 at (  64,   1,  64)
       Min divergence:  0.20E-05 at (   1,   1,   1)
       Max VN number:   0.15E+00 at (   1,   1,  65)
       Mesh   11
       Max CFL number:  0.32E+00 at (  45,   1,  45)
       Max divergence:  0.43E-01 at (   1,   1,  65)
       Min divergence: -0.41E+00 at (  64,   1,  64)
       Max VN number:   0.45E+00 at (  65,   1,  65)
       Mesh   12
       Max CFL number:  0.32E+00 at ( 128,   1,  66)
       Max divergence:  0.79E-01 at (  64,   1,  64)
       Min divergence:  0.20E-05 at (   1,   1,   1)
       Max VN number:   0.15E+00 at (   1,   1,  65)
       Mesh   13
       Max CFL number:  0.32E+00 at (  66,   1, 128)
       Max divergence:  0.79E-01 at (  64,   1,  64)
       Min divergence:  0.20E-05 at (   1,   1,   1)
       Max VN number:   0.15E+00 at (  65,   1,   1)
       Mesh   14
       Max CFL number:  0.32E+00 at (  45,   1,  45)
       Max divergence:  0.43E-01 at (   1,   1,  65)
       Min divergence: -0.41E+00 at (  64,   1,  64)
       Max VN number:   0.45E+00 at (  65,   1,  65)
       Mesh   15
       Max CFL number:  0.32E+00 at (  66,   1, 128)
       Max divergence:  0.79E-01 at (  64,   1,  64)
       Min divergence:  0.20E-05 at (   1,   1,   1)
       Max VN number:   0.15E+00 at (  65,   1,   1)
       Mesh   16
       Max CFL number:  0.32E+00 at (  45,   1,  45)
       Max divergence:  0.43E-01 at (  65,   1,   1)
       Min divergence: -0.41E+00 at (  64,   1,  64)
       Max VN number:   0.45E+00 at (  65,   1,  65)
 
       Time Step       5   February 19, 2020  19:29:59
       Step Size:    0.122E-02 s, Total Time:      0.006 s
       Pressure Iterations:      1
       Maximum Velocity Error:  0.56E-16 on Mesh   1 at ( 129   1  14)
       Maximum Pressure Error:  0.44E+00 on Mesh  14 at (  55   1  55)
       ScaRC: iterations   205, residual  0.97E-08, convergence rate   0.88E+00
       ---------------------------------------------------------------
       Mesh    1
       Max CFL number:  0.32E+00 at (  45,   1,  45)
       Max divergence:  0.54E-01 at (   1,   1,  65)
       Min divergence: -0.50E+00 at (  64,   1,  64)
       Max VN number:   0.45E+00 at (  65,   1,  65)
       Mesh    2
       Max CFL number:  0.32E+00 at ( 128,   1,  67)
       Max divergence:  0.98E-01 at (  64,   1,  64)
       Min divergence: -0.29E-06 at (   2,   1,   1)
       Max VN number:   0.15E+00 at (   1,   1,  65)
       Mesh    3
       Max CFL number:  0.32E+00 at (  45,   1,  45)
       Max divergence:  0.54E-01 at (   1,   1,  65)
       Min divergence: -0.50E+00 at (  64,   1,  64)
       Max VN number:   0.45E+00 at (  65,   1,  65)
       Mesh    4
       Max CFL number:  0.32E+00 at (  67,   1, 128)
       Max divergence:  0.98E-01 at (  64,   1,  64)
       Min divergence: -0.29E-06 at (   2,   1,   1)
       Max VN number:   0.15E+00 at (   1,   1,  65)
       Mesh    5
       Max CFL number:  0.32E+00 at (  67,   1, 128)
       Max divergence:  0.98E-01 at (  64,   1,  64)
       Min divergence: -0.29E-06 at (   1,   1,   2)
       Max VN number:   0.15E+00 at (  65,   1,   1)
       Mesh    6
       Max CFL number:  0.32E+00 at (  45,   1,  45)
       Max divergence:  0.54E-01 at (   1,   1,  65)
       Min divergence: -0.50E+00 at (  64,   1,  64)
       Max VN number:   0.45E+00 at (  65,   1,  65)
       Mesh    7
       Max CFL number:  0.32E+00 at (  67,   1, 128)
       Max divergence:  0.98E-01 at (  64,   1,  64)
       Min divergence: -0.29E-06 at (   1,   1,   2)
       Max VN number:   0.15E+00 at (   1,   1,  65)
       Mesh    8
       Max CFL number:  0.32E+00 at (  45,   1,  45)
       Max divergence:  0.54E-01 at (   1,   1,  65)
       Min divergence: -0.50E+00 at (  64,   1,  64)
       Max VN number:   0.45E+00 at (  65,   1,  65)
       Mesh    9
       Max CFL number:  0.32E+00 at (  45,   1,  45)
       Max divergence:  0.54E-01 at (  65,   1,   1)
       Min divergence: -0.50E+00 at (  64,   1,  64)
       Max VN number:   0.45E+00 at (  65,   1,  65)
       Mesh   10
       Max CFL number:  0.32E+00 at ( 128,   1,  67)
       Max divergence:  0.98E-01 at (  64,   1,  64)
       Min divergence: -0.29E-06 at (   2,   1,   1)
       Max VN number:   0.15E+00 at (  65,   1,   1)
       Mesh   11
       Max CFL number:  0.32E+00 at (  45,   1,  45)
       Max divergence:  0.54E-01 at (   1,   1,  65)
       Min divergence: -0.50E+00 at (  64,   1,  64)
       Max VN number:   0.45E+00 at (  65,   1,  65)
       Mesh   12
       Max CFL number:  0.32E+00 at ( 128,   1,  67)
       Max divergence:  0.98E-01 at (  64,   1,  64)
       Min divergence: -0.29E-06 at (   2,   1,   1)
       Max VN number:   0.15E+00 at (   1,   1,  65)
       Mesh   13
       Max CFL number:  0.32E+00 at ( 128,   1,  67)
       Max divergence:  0.98E-01 at (  64,   1,  64)
       Min divergence: -0.29E-06 at (   1,   1,   2)
       Max VN number:   0.15E+00 at (   1,   1,  65)
       Mesh   14
       Max CFL number:  0.32E+00 at (  45,   1,  45)
       Max divergence:  0.54E-01 at (  65,   1,   1)
       Min divergence: -0.50E+00 at (  64,   1,  64)
       Max VN number:   0.45E+00 at (  65,   1,  65)
       Mesh   15
       Max CFL number:  0.32E+00 at (  67,   1, 128)
       Max divergence:  0.98E-01 at (  64,   1,  64)
       Min divergence: -0.29E-06 at (   1,   1,   2)
       Max VN number:   0.15E+00 at (  65,   1,   1)
       Mesh   16
       Max CFL number:  0.32E+00 at (  45,   1,  45)
       Max divergence:  0.54E-01 at (   1,   1,  65)
       Min divergence: -0.50E+00 at (  64,   1,  64)
       Max VN number:   0.45E+00 at (  65,   1,  65)
 
       Time Step       6   February 19, 2020  19:30:02
       Step Size:    0.122E-02 s, Total Time:      0.007 s
       Pressure Iterations:      1
       Maximum Velocity Error:  0.56E-16 on Mesh   1 at ( 129   1  18)
       Maximum Pressure Error:  0.44E+00 on Mesh   3 at (  55   1  55)
       ScaRC: iterations   206, residual  0.96E-08, convergence rate   0.88E+00
       ---------------------------------------------------------------
       Mesh    1
       Max CFL number:  0.32E+00 at (  45,   1,  45)
       Max divergence:  0.65E-01 at (  65,   1,   1)
       Min divergence: -0.59E+00 at (  64,   1,  64)
       Max VN number:   0.45E+00 at (  65,   1,  65)
       Mesh    2
       Max CFL number:  0.32E+00 at (  67,   1, 128)
       Max divergence:  0.12E+00 at (  64,   1,  64)
       Min divergence: -0.89E-05 at (   2,   1,   1)
       Max VN number:   0.15E+00 at (  65,   1,   1)
       Mesh    3
       Max CFL number:  0.32E+00 at (  45,   1,  45)
       Max divergence:  0.65E-01 at (  65,   1,   1)
       Min divergence: -0.59E+00 at (  64,   1,  64)
       Max VN number:   0.45E+00 at (  65,   1,  65)
       Mesh    4
       Max CFL number:  0.32E+00 at ( 128,   1,  67)
       Max divergence:  0.12E+00 at (  64,   1,  64)
       Min divergence: -0.89E-05 at (   1,   1,   2)
       Max VN number:   0.15E+00 at (  65,   1,   1)
       Mesh    5
       Max CFL number:  0.32E+00 at (  67,   1, 128)
       Max divergence:  0.12E+00 at (  64,   1,  64)
       Min divergence: -0.89E-05 at (   2,   1,   1)
       Max VN number:   0.15E+00 at (   1,   1,  65)
       Mesh    6
       Max CFL number:  0.32E+00 at (  45,   1,  45)
       Max divergence:  0.65E-01 at (  65,   1,   1)
       Min divergence: -0.59E+00 at (  64,   1,  64)
       Max VN number:   0.45E+00 at (  65,   1,  65)
       Mesh    7
       Max CFL number:  0.32E+00 at (  67,   1, 128)
       Max divergence:  0.12E+00 at (  64,   1,  64)
       Min divergence: -0.89E-05 at (   1,   1,   2)
       Max VN number:   0.15E+00 at (   1,   1,  65)
       Mesh    8
       Max CFL number:  0.32E+00 at (  45,   1,  45)
       Max divergence:  0.65E-01 at (  65,   1,   1)
       Min divergence: -0.59E+00 at (  64,   1,  64)
       Max VN number:   0.45E+00 at (  65,   1,  65)
       Mesh    9
       Max CFL number:  0.32E+00 at (  45,   1,  45)
       Max divergence:  0.65E-01 at (   1,   1,  65)
       Min divergence: -0.59E+00 at (  64,   1,  64)
       Max VN number:   0.45E+00 at (  65,   1,  65)
       Mesh   10
       Max CFL number:  0.32E+00 at ( 128,   1,  67)
       Max divergence:  0.12E+00 at (  64,   1,  64)
       Min divergence: -0.89E-05 at (   1,   1,   2)
       Max VN number:   0.15E+00 at (   1,   1,  65)
       Mesh   11
       Max CFL number:  0.32E+00 at (  45,   1,  45)
       Max divergence:  0.65E-01 at (  65,   1,   1)
       Min divergence: -0.59E+00 at (  64,   1,  64)
       Max VN number:   0.45E+00 at (  65,   1,  65)
       Mesh   12
       Max CFL number:  0.32E+00 at (  67,   1, 128)
       Max divergence:  0.12E+00 at (  64,   1,  64)
       Min divergence: -0.89E-05 at (   2,   1,   1)
       Max VN number:   0.15E+00 at (  65,   1,   1)
       Mesh   13
       Max CFL number:  0.32E+00 at (  67,   1, 128)
       Max divergence:  0.12E+00 at (  64,   1,  64)
       Min divergence: -0.89E-05 at (   2,   1,   1)
       Max VN number:   0.15E+00 at (   1,   1,  65)
       Mesh   14
       Max CFL number:  0.32E+00 at (  45,   1,  45)
       Max divergence:  0.65E-01 at (   1,   1,  65)
       Min divergence: -0.59E+00 at (  64,   1,  64)
       Max VN number:   0.45E+00 at (  65,   1,  65)
       Mesh   15
       Max CFL number:  0.32E+00 at (  67,   1, 128)
       Max divergence:  0.12E+00 at (  64,   1,  64)
       Min divergence: -0.89E-05 at (   1,   1,   2)
       Max VN number:   0.15E+00 at (   1,   1,  65)
       Mesh   16
       Max CFL number:  0.32E+00 at (  45,   1,  45)
       Max divergence:  0.65E-01 at (   1,   1,  65)
       Min divergence: -0.59E+00 at (  64,   1,  64)
       Max VN number:   0.45E+00 at (  65,   1,  65)
 
       Time Step       7   February 19, 2020  19:30:05
       Step Size:    0.122E-02 s, Total Time:      0.009 s
       Pressure Iterations:      1
       Maximum Velocity Error:  0.56E-16 on Mesh   1 at ( 129   1  14)
       Maximum Pressure Error:  0.45E+00 on Mesh   6 at (  56   1  56)
       ScaRC: iterations   208, residual  0.89E-08, convergence rate   0.88E+00
       ---------------------------------------------------------------
       Mesh    1
       Max CFL number:  0.32E+00 at (  45,   1,  45)
       Max divergence:  0.76E-01 at (  65,   1,   1)
       Min divergence: -0.69E+00 at (  67,   1,  67)
       Max VN number:   0.45E+00 at (  65,   1,  65)
       Mesh    2
       Max CFL number:  0.32E+00 at (  67,   1, 128)
       Max divergence:  0.14E+00 at (  64,   1,  64)
       Min divergence: -0.94E-05 at (   1,   1,   2)
       Max VN number:   0.15E+00 at (   1,   1,  65)
       Mesh    3
       Max CFL number:  0.32E+00 at (  45,   1,  45)
       Max divergence:  0.76E-01 at (  65,   1,   1)
       Min divergence: -0.69E+00 at (  67,   1,  67)
       Max VN number:   0.45E+00 at (  65,   1,  65)
       Mesh    4
       Max CFL number:  0.32E+00 at ( 128,   1,  67)
       Max divergence:  0.14E+00 at (  64,   1,  64)
       Min divergence: -0.94E-05 at (   2,   1,   1)
       Max VN number:   0.15E+00 at (   1,   1,  65)
       Mesh    5
       Max CFL number:  0.32E+00 at (  67,   1, 128)
       Max divergence:  0.14E+00 at (  64,   1,  64)
       Min divergence: -0.94E-05 at (   2,   1,   1)
       Max VN number:   0.15E+00 at (   1,   1,  65)
       Mesh    6
       Max CFL number:  0.32E+00 at (  45,   1,  45)
       Max divergence:  0.76E-01 at (  65,   1,   1)
       Min divergence: -0.69E+00 at (  67,   1,  67)
       Max VN number:   0.45E+00 at (  65,   1,  65)
       Mesh    7
       Max CFL number:  0.32E+00 at (  67,   1, 128)
       Max divergence:  0.14E+00 at (  64,   1,  64)
       Min divergence: -0.94E-05 at (   1,   1,   2)
       Max VN number:   0.15E+00 at (  65,   1,   1)
       Mesh    8
       Max CFL number:  0.32E+00 at (  45,   1,  45)
       Max divergence:  0.76E-01 at (   1,   1,  65)
       Min divergence: -0.69E+00 at (  67,   1,  67)
       Max VN number:   0.45E+00 at (  65,   1,  65)
       Mesh    9
       Max CFL number:  0.32E+00 at (  45,   1,  45)
       Max divergence:  0.76E-01 at (   1,   1,  65)
       Min divergence: -0.69E+00 at (  67,   1,  67)
       Max VN number:   0.45E+00 at (  65,   1,  65)
       Mesh   10
       Max CFL number:  0.32E+00 at ( 128,   1,  67)
       Max divergence:  0.14E+00 at (  64,   1,  64)
       Min divergence: -0.94E-05 at (   1,   1,   2)
       Max VN number:   0.15E+00 at (   1,   1,  65)
       Mesh   11
       Max CFL number:  0.32E+00 at (  45,   1,  45)
       Max divergence:  0.76E-01 at (  65,   1,   1)
       Min divergence: -0.69E+00 at (  67,   1,  67)
       Max VN number:   0.45E+00 at (  65,   1,  65)
       Mesh   12
       Max CFL number:  0.32E+00 at ( 128,   1,  67)
       Max divergence:  0.14E+00 at (  64,   1,  64)
       Min divergence: -0.94E-05 at (   2,   1,   1)
       Max VN number:   0.15E+00 at (  65,   1,   1)
       Mesh   13
       Max CFL number:  0.32E+00 at (  67,   1, 128)
       Max divergence:  0.14E+00 at (  64,   1,  64)
       Min divergence: -0.94E-05 at (   1,   1,   2)
       Max VN number:   0.15E+00 at (  65,   1,   1)
       Mesh   14
       Max CFL number:  0.32E+00 at (  45,   1,  45)
       Max divergence:  0.76E-01 at (  65,   1,   1)
       Min divergence: -0.69E+00 at (  67,   1,  67)
       Max VN number:   0.45E+00 at (  65,   1,  65)
       Mesh   15
       Max CFL number:  0.32E+00 at (  67,   1, 128)
       Max divergence:  0.14E+00 at (  64,   1,  64)
       Min divergence: -0.94E-05 at (   2,   1,   1)
       Max VN number:   0.15E+00 at (  65,   1,   1)
       Mesh   16
       Max CFL number:  0.32E+00 at (  45,   1,  45)
       Max divergence:  0.76E-01 at (  65,   1,   1)
       Min divergence: -0.69E+00 at (  67,   1,  67)
       Max VN number:   0.45E+00 at (  65,   1,  65)
 
       Time Step       8   February 19, 2020  19:30:07
       Step Size:    0.122E-02 s, Total Time:      0.010 s
       Pressure Iterations:      1
       Maximum Velocity Error:  0.56E-16 on Mesh   1 at (   0   1   1)
       Maximum Pressure Error:  0.45E+00 on Mesh  14 at (  56   1  56)
       ScaRC: iterations   208, residual  0.99E-08, convergence rate   0.89E+00
       ---------------------------------------------------------------
       Mesh    1
       Max CFL number:  0.32E+00 at (  45,   1,  46)
       Max divergence:  0.88E-01 at (   1,   1,  65)
       Min divergence: -0.78E+00 at (  67,   1,  67)
       Max VN number:   0.45E+00 at (  66,   1,  66)
       Mesh    2
       Max CFL number:  0.32E+00 at (  67,   1, 128)
       Max divergence:  0.16E+00 at (  64,   1,  64)
       Min divergence: -0.35E-04 at (   1,   1,   3)
       Max VN number:   0.15E+00 at (  66,   1,   1)
       Mesh    3
       Max CFL number:  0.32E+00 at (  45,   1,  46)
       Max divergence:  0.88E-01 at (  65,   1,   1)
       Min divergence: -0.78E+00 at (  67,   1,  67)
       Max VN number:   0.45E+00 at (  66,   1,  66)
       Mesh    4
       Max CFL number:  0.32E+00 at (  67,   1, 128)
       Max divergence:  0.16E+00 at (  64,   1,  64)
       Min divergence: -0.35E-04 at (   3,   1,   1)
       Max VN number:   0.15E+00 at (  66,   1,   1)
       Mesh    5
       Max CFL number:  0.32E+00 at ( 128,   1,  67)
       Max divergence:  0.16E+00 at (  64,   1,  64)
       Min divergence: -0.35E-04 at (   3,   1,   1)
       Max VN number:   0.15E+00 at (   1,   1,  66)
       Mesh    6
       Max CFL number:  0.32E+00 at (  45,   1,  46)
       Max divergence:  0.88E-01 at (  65,   1,   1)
       Min divergence: -0.78E+00 at (  67,   1,  67)
       Max VN number:   0.45E+00 at (  66,   1,  66)
       Mesh    7
       Max CFL number:  0.32E+00 at (  67,   1, 128)
       Max divergence:  0.16E+00 at (  64,   1,  64)
       Min divergence: -0.35E-04 at (   3,   1,   1)
       Max VN number:   0.15E+00 at (  66,   1,   1)
       Mesh    8
       Max CFL number:  0.32E+00 at (  45,   1,  46)
       Max divergence:  0.88E-01 at (  65,   1,   1)
       Min divergence: -0.78E+00 at (  67,   1,  67)
       Max VN number:   0.45E+00 at (  66,   1,  66)
       Mesh    9
       Max CFL number:  0.32E+00 at (  45,   1,  46)
       Max divergence:  0.88E-01 at (   1,   1,  65)
       Min divergence: -0.78E+00 at (  67,   1,  67)
       Max VN number:   0.45E+00 at (  66,   1,  66)
       Mesh   10
       Max CFL number:  0.32E+00 at ( 128,   1,  67)
       Max divergence:  0.16E+00 at (  64,   1,  64)
       Min divergence: -0.35E-04 at (   3,   1,   1)
       Max VN number:   0.15E+00 at (  66,   1,   1)
       Mesh   11
       Max CFL number:  0.32E+00 at (  45,   1,  46)
       Max divergence:  0.88E-01 at (   1,   1,  65)
       Min divergence: -0.78E+00 at (  67,   1,  67)
       Max VN number:   0.45E+00 at (  66,   1,  66)
       Mesh   12
       Max CFL number:  0.32E+00 at (  67,   1, 128)
       Max divergence:  0.16E+00 at (  64,   1,  64)
       Min divergence: -0.35E-04 at (   1,   1,   3)
       Max VN number:   0.15E+00 at (   1,   1,  66)
       Mesh   13
       Max CFL number:  0.32E+00 at ( 128,   1,  67)
       Max divergence:  0.16E+00 at (  64,   1,  64)
       Min divergence: -0.35E-04 at (   1,   1,   3)
       Max VN number:   0.15E+00 at (   1,   1,  66)
       Mesh   14
       Max CFL number:  0.32E+00 at (  46,   1,  45)
       Max divergence:  0.88E-01 at (  65,   1,   1)
       Min divergence: -0.78E+00 at (  67,   1,  67)
       Max VN number:   0.45E+00 at (  66,   1,  66)
       Mesh   15
       Max CFL number:  0.32E+00 at ( 128,   1,  67)
       Max divergence:  0.16E+00 at (  64,   1,  64)
       Min divergence: -0.35E-04 at (   3,   1,   1)
       Max VN number:   0.15E+00 at (  66,   1,   1)
       Mesh   16
       Max CFL number:  0.32E+00 at (  45,   1,  46)
       Max divergence:  0.88E-01 at (   1,   1,  65)
       Min divergence: -0.78E+00 at (  67,   1,  67)
       Max VN number:   0.45E+00 at (  66,   1,  66)
 
       Time Step       9   February 19, 2020  19:30:10
       Step Size:    0.122E-02 s, Total Time:       0.01 s
       Pressure Iterations:      1
       Maximum Velocity Error:  0.56E-16 on Mesh   1 at ( 129   1   5)
       Maximum Pressure Error:  0.46E+00 on Mesh   1 at (  56   1  56)
       ScaRC: iterations   209, residual  0.86E-08, convergence rate   0.88E+00
       ---------------------------------------------------------------
       Mesh    1
       Max CFL number:  0.33E+00 at (  46,   1,  46)
       Max divergence:  0.99E-01 at (   1,   1,  65)
       Min divergence: -0.88E+00 at (  65,   1,  65)
       Max VN number:   0.45E+00 at (  66,   1,  66)
       Mesh    2
       Max CFL number:  0.32E+00 at (  68,   1, 128)
       Max divergence:  0.17E+00 at (  64,   1,  64)
       Min divergence: -0.56E-04 at (   1,   1,   3)
       Max VN number:   0.15E+00 at (  66,   1,   1)
       Mesh    3
       Max CFL number:  0.33E+00 at (  46,   1,  46)
       Max divergence:  0.99E-01 at (  65,   1,   1)
       Min divergence: -0.88E+00 at (  65,   1,  65)
       Max VN number:   0.45E+00 at (  66,   1,  66)
       Mesh    4
       Max CFL number:  0.32E+00 at (  68,   1, 128)
       Max divergence:  0.17E+00 at (  64,   1,  64)
       Min divergence: -0.56E-04 at (   1,   1,   3)
       Max VN number:   0.15E+00 at (  66,   1,   1)
       Mesh    5
       Max CFL number:  0.32E+00 at (  68,   1, 128)
       Max divergence:  0.17E+00 at (  64,   1,  64)
       Min divergence: -0.56E-04 at (   3,   1,   1)
       Max VN number:   0.15E+00 at (   1,   1,  66)
       Mesh    6
       Max CFL number:  0.33E+00 at (  46,   1,  46)
       Max divergence:  0.99E-01 at (   1,   1,  65)
       Min divergence: -0.88E+00 at (  65,   1,  65)
       Max VN number:   0.45E+00 at (  66,   1,  66)
       Mesh    7
       Max CFL number:  0.32E+00 at ( 128,   1,  68)
       Max divergence:  0.17E+00 at (  64,   1,  64)
       Min divergence: -0.56E-04 at (   1,   1,   3)
       Max VN number:   0.15E+00 at (  66,   1,   1)
       Mesh    8
       Max CFL number:  0.33E+00 at (  46,   1,  46)
       Max divergence:  0.99E-01 at (  65,   1,   1)
       Min divergence: -0.88E+00 at (  65,   1,  65)
       Max VN number:   0.45E+00 at (  66,   1,  66)
       Mesh    9
       Max CFL number:  0.33E+00 at (  46,   1,  46)
       Max divergence:  0.99E-01 at (   1,   1,  65)
       Min divergence: -0.88E+00 at (  65,   1,  65)
       Max VN number:   0.45E+00 at (  66,   1,  66)
       Mesh   10
       Max CFL number:  0.32E+00 at ( 128,   1,  68)
       Max divergence:  0.17E+00 at (  64,   1,  64)
       Min divergence: -0.56E-04 at (   1,   1,   3)
       Max VN number:   0.15E+00 at (   1,   1,  66)
       Mesh   11
       Max CFL number:  0.33E+00 at (  46,   1,  46)
       Max divergence:  0.99E-01 at (  65,   1,   1)
       Min divergence: -0.88E+00 at (  65,   1,  65)
       Max VN number:   0.45E+00 at (  66,   1,  66)
       Mesh   12
       Max CFL number:  0.32E+00 at (  68,   1, 128)
       Max divergence:  0.17E+00 at (  64,   1,  64)
       Min divergence: -0.56E-04 at (   3,   1,   1)
       Max VN number:   0.15E+00 at (   1,   1,  66)
       Mesh   13
       Max CFL number:  0.32E+00 at ( 128,   1,  68)
       Max divergence:  0.17E+00 at (  64,   1,  64)
       Min divergence: -0.56E-04 at (   3,   1,   1)
       Max VN number:   0.15E+00 at (   1,   1,  66)
       Mesh   14
       Max CFL number:  0.33E+00 at (  46,   1,  46)
       Max divergence:  0.99E-01 at (  65,   1,   1)
       Min divergence: -0.88E+00 at (  65,   1,  65)
       Max VN number:   0.45E+00 at (  66,   1,  66)
       Mesh   15
       Max CFL number:  0.32E+00 at ( 128,   1,  68)
       Max divergence:  0.17E+00 at (  64,   1,  64)
       Min divergence: -0.56E-04 at (   3,   1,   1)
       Max VN number:   0.15E+00 at (  66,   1,   1)
       Mesh   16
       Max CFL number:  0.33E+00 at (  46,   1,  46)
       Max divergence:  0.99E-01 at (   1,   1,  65)
       Min divergence: -0.88E+00 at (  65,   1,  65)
       Max VN number:   0.45E+00 at (  66,   1,  66)
 
       Time Step      10   February 19, 2020  19:30:13
       Step Size:    0.122E-02 s, Total Time:       0.01 s
       Pressure Iterations:      1
       Maximum Velocity Error:  0.11E-15 on Mesh  13 at (   0   1   2)
       Maximum Pressure Error:  0.46E+00 on Mesh  11 at (  57   1  57)
       ScaRC: iterations   209, residual  0.94E-08, convergence rate   0.88E+00
       ---------------------------------------------------------------
       Mesh    1
       Max CFL number:  0.33E+00 at (  46,   1,  46)
       Max divergence:  0.11E+00 at (   1,   1,  65)
       Min divergence: -0.98E+00 at (  65,   1,  65)
       Max VN number:   0.45E+00 at (  66,   1,  66)
       Mesh    2
       Max CFL number:  0.32E+00 at ( 128,   1,  68)
       Max divergence:  0.19E+00 at (  68,   1,  68)
       Min divergence: -0.84E-04 at (   1,   1,   4)
       Max VN number:   0.15E+00 at (  66,   1,   1)
       Mesh    3
       Max CFL number:  0.33E+00 at (  46,   1,  46)
       Max divergence:  0.11E+00 at (  65,   1,   1)
       Min divergence: -0.98E+00 at (  65,   1,  65)
       Max VN number:   0.45E+00 at (  66,   1,  66)
       Mesh    4
       Max CFL number:  0.32E+00 at ( 128,   1,  68)
       Max divergence:  0.19E+00 at (  68,   1,  68)
       Min divergence: -0.84E-04 at (   1,   1,   4)
       Max VN number:   0.15E+00 at (  66,   1,   1)
       Mesh    5
       Max CFL number:  0.32E+00 at (  68,   1, 128)
       Max divergence:  0.19E+00 at (  68,   1,  68)
       Min divergence: -0.84E-04 at (   4,   1,   1)
       Max VN number:   0.15E+00 at (   1,   1,  66)
       Mesh    6
       Max CFL number:  0.33E+00 at (  46,   1,  46)
       Max divergence:  0.11E+00 at (  65,   1,   1)
       Min divergence: -0.98E+00 at (  65,   1,  65)
       Max VN number:   0.45E+00 at (  66,   1,  66)
       Mesh    7
       Max CFL number:  0.32E+00 at (  68,   1, 128)
       Max divergence:  0.19E+00 at (  68,   1,  68)
       Min divergence: -0.84E-04 at (   4,   1,   1)
       Max VN number:   0.15E+00 at (   1,   1,  66)
       Mesh    8
       Max CFL number:  0.33E+00 at (  46,   1,  46)
       Max divergence:  0.11E+00 at (   1,   1,  65)
       Min divergence: -0.98E+00 at (  65,   1,  65)
       Max VN number:   0.45E+00 at (  66,   1,  66)
       Mesh    9
       Max CFL number:  0.33E+00 at (  46,   1,  46)
       Max divergence:  0.11E+00 at (   1,   1,  65)
       Min divergence: -0.98E+00 at (  65,   1,  65)
       Max VN number:   0.45E+00 at (  66,   1,  66)
       Mesh   10
       Max CFL number:  0.32E+00 at (  68,   1, 128)
       Max divergence:  0.19E+00 at (  68,   1,  68)
       Min divergence: -0.84E-04 at (   4,   1,   1)
       Max VN number:   0.15E+00 at (   1,   1,  66)
       Mesh   11
       Max CFL number:  0.33E+00 at (  46,   1,  46)
       Max divergence:  0.11E+00 at (   1,   1,  65)
       Min divergence: -0.98E+00 at (  65,   1,  65)
       Max VN number:   0.45E+00 at (  66,   1,  66)
       Mesh   12
       Max CFL number:  0.32E+00 at (  68,   1, 128)
       Max divergence:  0.19E+00 at (  68,   1,  68)
       Min divergence: -0.84E-04 at (   4,   1,   1)
       Max VN number:   0.15E+00 at (   1,   1,  66)
       Mesh   13
       Max CFL number:  0.32E+00 at (  68,   1, 128)
       Max divergence:  0.19E+00 at (  68,   1,  68)
       Min divergence: -0.84E-04 at (   4,   1,   1)
       Max VN number:   0.15E+00 at (   1,   1,  66)
       Mesh   14
       Max CFL number:  0.33E+00 at (  46,   1,  46)
       Max divergence:  0.11E+00 at (  65,   1,   1)
       Min divergence: -0.98E+00 at (  65,   1,  65)
       Max VN number:   0.45E+00 at (  66,   1,  66)
       Mesh   15
       Max CFL number:  0.32E+00 at (  68,   1, 128)
       Max divergence:  0.19E+00 at (  68,   1,  68)
       Min divergence: -0.84E-04 at (   4,   1,   1)
       Max VN number:   0.15E+00 at (  66,   1,   1)
       Mesh   16
       Max CFL number:  0.33E+00 at (  46,   1,  46)
       Max divergence:  0.11E+00 at (   1,   1,  65)
       Min divergence: -0.98E+00 at (  65,   1,  65)
       Max VN number:   0.45E+00 at (  66,   1,  66)
 
       Time Step      20   February 19, 2020  19:30:40
       Step Size:    0.122E-02 s, Total Time:       0.02 s
       Pressure Iterations:      1
       Maximum Velocity Error:  0.56E-16 on Mesh   1 at ( 129   1  13)
       Maximum Pressure Error:  0.50E+00 on Mesh   8 at (  60   1  60)
       ScaRC: iterations   211, residual  0.75E-08, convergence rate   0.88E+00
       ---------------------------------------------------------------
       Mesh    1
       Max CFL number:  0.34E+00 at (  47,   1,  47)
       Max divergence:  0.23E+00 at (   1,   1,  66)
       Min divergence: -0.19E+01 at (  66,   1,  66)
       Max VN number:   0.44E+00 at (  68,   1,  68)
       Mesh    2
       Max CFL number:  0.33E+00 at (  71,   1, 128)
       Max divergence:  0.39E+00 at (  66,   1,  66)
       Min divergence: -0.11E-02 at ( 128,   1,   1)
       Max VN number:   0.16E+00 at (  68,   1,   1)
       Mesh    3
       Max CFL number:  0.34E+00 at (  47,   1,  47)
       Max divergence:  0.23E+00 at (   1,   1,  66)
       Min divergence: -0.19E+01 at (  66,   1,  66)
       Max VN number:   0.44E+00 at (  68,   1,  68)
       Mesh    4
       Max CFL number:  0.33E+00 at (  71,   1, 128)
       Max divergence:  0.39E+00 at (  66,   1,  66)
       Min divergence: -0.11E-02 at (   1,   1, 128)
       Max VN number:   0.16E+00 at (  68,   1,   1)
       Mesh    5
       Max CFL number:  0.33E+00 at (  71,   1, 128)
       Max divergence:  0.39E+00 at (  66,   1,  66)
       Min divergence: -0.11E-02 at (   1,   1, 128)
       Max VN number:   0.16E+00 at (  68,   1,   1)
       Mesh    6
       Max CFL number:  0.34E+00 at (  47,   1,  47)
       Max divergence:  0.23E+00 at (   1,   1,  66)
       Min divergence: -0.19E+01 at (  66,   1,  66)
       Max VN number:   0.44E+00 at (  68,   1,  68)
       Mesh    7
       Max CFL number:  0.33E+00 at (  71,   1, 128)
       Max divergence:  0.39E+00 at (  66,   1,  66)
       Min divergence: -0.11E-02 at ( 128,   1,   1)
       Max VN number:   0.16E+00 at (   1,   1,  68)
       Mesh    8
       Max CFL number:  0.34E+00 at (  47,   1,  47)
       Max divergence:  0.23E+00 at (  66,   1,   1)
       Min divergence: -0.19E+01 at (  66,   1,  66)
       Max VN number:   0.44E+00 at (  68,   1,  68)
       Mesh    9
       Max CFL number:  0.34E+00 at (  47,   1,  47)
       Max divergence:  0.23E+00 at (  66,   1,   1)
       Min divergence: -0.19E+01 at (  66,   1,  66)
       Max VN number:   0.44E+00 at (  68,   1,  68)
       Mesh   10
       Max CFL number:  0.33E+00 at (  71,   1, 128)
       Max divergence:  0.39E+00 at (  66,   1,  66)
       Min divergence: -0.11E-02 at (   1,   1, 128)
       Max VN number:   0.16E+00 at (  68,   1,   1)
       Mesh   11
       Max CFL number:  0.34E+00 at (  47,   1,  47)
       Max divergence:  0.23E+00 at (  66,   1,   1)
       Min divergence: -0.19E+01 at (  66,   1,  66)
       Max VN number:   0.44E+00 at (  68,   1,  68)
       Mesh   12
       Max CFL number:  0.33E+00 at (  71,   1, 128)
       Max divergence:  0.39E+00 at (  66,   1,  66)
       Min divergence: -0.11E-02 at ( 128,   1,   1)
       Max VN number:   0.16E+00 at (   1,   1,  68)
       Mesh   13
       Max CFL number:  0.33E+00 at ( 128,   1,  71)
       Max divergence:  0.39E+00 at (  66,   1,  66)
       Min divergence: -0.11E-02 at ( 128,   1,   1)
       Max VN number:   0.16E+00 at (  68,   1,   1)
       Mesh   14
       Max CFL number:  0.34E+00 at (  47,   1,  47)
       Max divergence:  0.23E+00 at (  66,   1,   1)
       Min divergence: -0.19E+01 at (  66,   1,  66)
       Max VN number:   0.44E+00 at (  68,   1,  68)
       Mesh   15
       Max CFL number:  0.33E+00 at ( 128,   1,  71)
       Max divergence:  0.39E+00 at (  66,   1,  66)
       Min divergence: -0.11E-02 at ( 128,   1,   1)
       Max VN number:   0.16E+00 at (   1,   1,  68)
       Mesh   16
       Max CFL number:  0.34E+00 at (  47,   1,  47)
       Max divergence:  0.23E+00 at (  66,   1,   1)
       Min divergence: -0.19E+01 at (  66,   1,  66)
       Max VN number:   0.44E+00 at (  68,   1,  68)
 
       Time Step      30   February 19, 2020  19:31:08
       Step Size:    0.122E-02 s, Total Time:       0.04 s
       Pressure Iterations:      1
       Maximum Velocity Error:  0.56E-16 on Mesh   1 at ( 129   1  10)
       Maximum Pressure Error:  0.53E+00 on Mesh  14 at (  63   1  63)
       ScaRC: iterations   212, residual  0.67E-08, convergence rate   0.88E+00
       ---------------------------------------------------------------
       Mesh    1
       Max CFL number:  0.35E+00 at (  49,   1,  48)
       Max divergence:  0.36E+00 at (  68,   1,   1)
       Min divergence: -0.27E+01 at (  68,   1,  68)
       Max VN number:   0.43E+00 at (  69,   1,  69)
       Mesh    2
       Max CFL number:  0.33E+00 at (  75,   1, 128)
       Max divergence:  0.58E+00 at (  67,   1,  67)
       Min divergence: -0.45E-02 at ( 127,   1,   1)
       Max VN number:   0.16E+00 at (  69,   1,   1)
       Mesh    3
       Max CFL number:  0.35E+00 at (  49,   1,  48)
       Max divergence:  0.36E+00 at (  68,   1,   1)
       Min divergence: -0.27E+01 at (  68,   1,  68)
       Max VN number:   0.43E+00 at (  69,   1,  69)
       Mesh    4
       Max CFL number:  0.33E+00 at (  75,   1, 128)
       Max divergence:  0.58E+00 at (  67,   1,  67)
       Min divergence: -0.45E-02 at (   1,   1, 127)
       Max VN number:   0.16E+00 at (   1,   1,  69)
       Mesh    5
       Max CFL number:  0.33E+00 at (  75,   1, 128)
       Max divergence:  0.58E+00 at (  67,   1,  67)
       Min divergence: -0.45E-02 at (   1,   1, 127)
       Max VN number:   0.16E+00 at (  69,   1,   1)
       Mesh    6
       Max CFL number:  0.35E+00 at (  49,   1,  48)
       Max divergence:  0.36E+00 at (  68,   1,   1)
       Min divergence: -0.27E+01 at (  68,   1,  68)
       Max VN number:   0.43E+00 at (  69,   1,  69)
       Mesh    7
       Max CFL number:  0.33E+00 at ( 128,   1,  75)
       Max divergence:  0.58E+00 at (  67,   1,  67)
       Min divergence: -0.45E-02 at (   1,   1, 127)
       Max VN number:   0.16E+00 at (   1,   1,  69)
       Mesh    8
       Max CFL number:  0.35E+00 at (  48,   1,  49)
       Max divergence:  0.36E+00 at (  68,   1,   1)
       Min divergence: -0.27E+01 at (  68,   1,  68)
       Max VN number:   0.43E+00 at (  69,   1,  69)
       Mesh    9
       Max CFL number:  0.35E+00 at (  49,   1,  48)
       Max divergence:  0.36E+00 at (   1,   1,  68)
       Min divergence: -0.27E+01 at (  68,   1,  68)
       Max VN number:   0.43E+00 at (  69,   1,  69)
       Mesh   10
       Max CFL number:  0.33E+00 at (  75,   1, 128)
       Max divergence:  0.58E+00 at (  67,   1,  67)
       Min divergence: -0.45E-02 at ( 127,   1,   1)
       Max VN number:   0.16E+00 at (   1,   1,  69)
       Mesh   11
       Max CFL number:  0.35E+00 at (  48,   1,  49)
       Max divergence:  0.36E+00 at (   1,   1,  68)
       Min divergence: -0.27E+01 at (  68,   1,  68)
       Max VN number:   0.43E+00 at (  69,   1,  69)
       Mesh   12
       Max CFL number:  0.33E+00 at (  75,   1, 128)
       Max divergence:  0.58E+00 at (  67,   1,  67)
       Min divergence: -0.45E-02 at (   1,   1, 127)
       Max VN number:   0.16E+00 at (  69,   1,   1)
       Mesh   13
       Max CFL number:  0.33E+00 at (  75,   1, 128)
       Max divergence:  0.58E+00 at (  67,   1,  67)
       Min divergence: -0.45E-02 at ( 127,   1,   1)
       Max VN number:   0.16E+00 at (  69,   1,   1)
       Mesh   14
       Max CFL number:  0.35E+00 at (  49,   1,  48)
       Max divergence:  0.36E+00 at (   1,   1,  68)
       Min divergence: -0.27E+01 at (  68,   1,  68)
       Max VN number:   0.43E+00 at (  69,   1,  69)
       Mesh   15
       Max CFL number:  0.33E+00 at ( 128,   1,  75)
       Max divergence:  0.58E+00 at (  67,   1,  67)
       Min divergence: -0.45E-02 at ( 127,   1,   1)
       Max VN number:   0.16E+00 at (   1,   1,  69)
       Mesh   16
       Max CFL number:  0.35E+00 at (  49,   1,  48)
       Max divergence:  0.36E+00 at (   1,   1,  68)
       Min divergence: -0.27E+01 at (  68,   1,  68)
       Max VN number:   0.43E+00 at (  69,   1,  69)
 
       Time Step      40   February 19, 2020  19:31:35
       Step Size:    0.122E-02 s, Total Time:       0.05 s
       Pressure Iterations:      1
       Maximum Velocity Error:  0.56E-16 on Mesh   1 at ( 129   1  28)
       Maximum Pressure Error:  0.56E+00 on Mesh  11 at (  69   1  69)
       ScaRC: iterations   212, residual  0.97E-08, convergence rate   0.88E+00
       ---------------------------------------------------------------
       Mesh    1
       Max CFL number:  0.37E+00 at (  50,   1,  50)
       Max divergence:  0.49E+00 at (   1,   1,  72)
       Min divergence: -0.35E+01 at (  72,   1,  72)
       Max VN number:   0.41E+00 at (  71,   1,  71)
       Mesh    2
       Max CFL number:  0.34E+00 at ( 128,   1,  78)
       Max divergence:  0.77E+00 at (  69,   1,  69)
       Min divergence: -0.12E-01 at (  16,   1,   1)
       Max VN number:   0.16E+00 at (  71,   1,   1)
       Mesh    3
       Max CFL number:  0.37E+00 at (  50,   1,  50)
       Max divergence:  0.49E+00 at (  72,   1,   1)
       Min divergence: -0.35E+01 at (  72,   1,  72)
       Max VN number:   0.41E+00 at (  71,   1,  71)
       Mesh    4
       Max CFL number:  0.34E+00 at (  78,   1, 128)
       Max divergence:  0.77E+00 at (  69,   1,  69)
       Min divergence: -0.12E-01 at (  16,   1,   1)
       Max VN number:   0.16E+00 at (   1,   1,  71)
       Mesh    5
       Max CFL number:  0.34E+00 at ( 128,   1,  78)
       Max divergence:  0.77E+00 at (  69,   1,  69)
       Min divergence: -0.12E-01 at (  16,   1,   1)
       Max VN number:   0.16E+00 at (   1,   1,  71)
       Mesh    6
       Max CFL number:  0.37E+00 at (  50,   1,  50)
       Max divergence:  0.49E+00 at (  72,   1,   1)
       Min divergence: -0.35E+01 at (  72,   1,  72)
       Max VN number:   0.41E+00 at (  71,   1,  71)
       Mesh    7
       Max CFL number:  0.34E+00 at (  78,   1, 128)
       Max divergence:  0.77E+00 at (  69,   1,  69)
       Min divergence: -0.12E-01 at (  16,   1,   1)
       Max VN number:   0.16E+00 at (   1,   1,  71)
       Mesh    8
       Max CFL number:  0.37E+00 at (  50,   1,  50)
       Max divergence:  0.49E+00 at (  72,   1,   1)
       Min divergence: -0.35E+01 at (  72,   1,  72)
       Max VN number:   0.41E+00 at (  71,   1,  71)
       Mesh    9
       Max CFL number:  0.37E+00 at (  50,   1,  50)
       Max divergence:  0.49E+00 at (   1,   1,  72)
       Min divergence: -0.35E+01 at (  72,   1,  72)
       Max VN number:   0.41E+00 at (  71,   1,  71)
       Mesh   10
       Max CFL number:  0.34E+00 at (  78,   1, 128)
       Max divergence:  0.77E+00 at (  69,   1,  69)
       Min divergence: -0.12E-01 at (   1,   1,  16)
       Max VN number:   0.16E+00 at (   1,   1,  71)
       Mesh   11
       Max CFL number:  0.37E+00 at (  50,   1,  50)
       Max divergence:  0.49E+00 at (   1,   1,  72)
       Min divergence: -0.35E+01 at (  72,   1,  72)
       Max VN number:   0.41E+00 at (  71,   1,  71)
       Mesh   12
       Max CFL number:  0.34E+00 at ( 128,   1,  78)
       Max divergence:  0.77E+00 at (  69,   1,  69)
       Min divergence: -0.12E-01 at (  16,   1,   1)
       Max VN number:   0.16E+00 at (   1,   1,  71)
       Mesh   13
       Max CFL number:  0.34E+00 at ( 128,   1,  78)
       Max divergence:  0.77E+00 at (  69,   1,  69)
       Min divergence: -0.12E-01 at (  16,   1,   1)
       Max VN number:   0.16E+00 at (  71,   1,   1)
       Mesh   14
       Max CFL number:  0.37E+00 at (  50,   1,  50)
       Max divergence:  0.49E+00 at (   1,   1,  72)
       Min divergence: -0.35E+01 at (  72,   1,  72)
       Max VN number:   0.41E+00 at (  71,   1,  71)
       Mesh   15
       Max CFL number:  0.34E+00 at (  78,   1, 128)
       Max divergence:  0.77E+00 at (  69,   1,  69)
       Min divergence: -0.12E-01 at (  16,   1,   1)
       Max VN number:   0.16E+00 at (  71,   1,   1)
       Mesh   16
       Max CFL number:  0.37E+00 at (  50,   1,  50)
       Max divergence:  0.49E+00 at (   1,   1,  72)
       Min divergence: -0.35E+01 at (  72,   1,  72)
       Max VN number:   0.41E+00 at (  71,   1,  71)
 
       Time Step      50   February 19, 2020  19:32:03
       Step Size:    0.134E-02 s, Total Time:       0.06 s
       Pressure Iterations:      1
       Maximum Velocity Error:  0.56E-16 on Mesh   1 at ( 129   1  30)
       Maximum Pressure Error:  0.64E+00 on Mesh  16 at (  71   1  71)
       ScaRC: iterations   213, residual  0.68E-08, convergence rate   0.88E+00
       ---------------------------------------------------------------
       Mesh    1
       Max CFL number:  0.42E+00 at (  51,   1,  51)
       Max divergence:  0.64E+00 at (   1,   1,  71)
       Min divergence: -0.41E+01 at (  71,   1,  71)
       Max VN number:   0.43E+00 at (  72,   1,  72)
       Mesh    2
       Max CFL number:  0.38E+00 at (  81,   1, 128)
       Max divergence:  0.97E+00 at (  70,   1,  70)
       Min divergence: -0.27E-01 at (   1,   1, 124)
       Max VN number:   0.19E+00 at (  72,   1,   1)
       Mesh    3
       Max CFL number:  0.42E+00 at (  51,   1,  51)
       Max divergence:  0.64E+00 at (  71,   1,   1)
       Min divergence: -0.41E+01 at (  71,   1,  71)
       Max VN number:   0.43E+00 at (  72,   1,  72)
       Mesh    4
       Max CFL number:  0.38E+00 at ( 128,   1,  81)
       Max divergence:  0.97E+00 at (  70,   1,  70)
       Min divergence: -0.27E-01 at ( 124,   1,   1)
       Max VN number:   0.19E+00 at (  72,   1,   1)
       Mesh    5
       Max CFL number:  0.38E+00 at (  81,   1, 128)
       Max divergence:  0.97E+00 at (  70,   1,  70)
       Min divergence: -0.27E-01 at ( 124,   1,   1)
       Max VN number:   0.19E+00 at (   1,   1,  72)
       Mesh    6
       Max CFL number:  0.42E+00 at (  51,   1,  51)
       Max divergence:  0.64E+00 at (   1,   1,  71)
       Min divergence: -0.41E+01 at (  71,   1,  71)
       Max VN number:   0.43E+00 at (  72,   1,  72)
       Mesh    7
       Max CFL number:  0.38E+00 at (  81,   1, 128)
       Max divergence:  0.97E+00 at (  70,   1,  70)
       Min divergence: -0.27E-01 at (   1,   1, 124)
       Max VN number:   0.19E+00 at (   1,   1,  72)
       Mesh    8
       Max CFL number:  0.42E+00 at (  51,   1,  51)
       Max divergence:  0.64E+00 at (  71,   1,   1)
       Min divergence: -0.41E+01 at (  71,   1,  71)
       Max VN number:   0.43E+00 at (  72,   1,  72)
       Mesh    9
       Max CFL number:  0.42E+00 at (  51,   1,  51)
       Max divergence:  0.64E+00 at (   1,   1,  71)
       Min divergence: -0.41E+01 at (  71,   1,  71)
       Max VN number:   0.43E+00 at (  72,   1,  72)
       Mesh   10
       Max CFL number:  0.38E+00 at (  81,   1, 128)
       Max divergence:  0.97E+00 at (  70,   1,  70)
       Min divergence: -0.27E-01 at ( 124,   1,   1)
       Max VN number:   0.19E+00 at (  72,   1,   1)
       Mesh   11
       Max CFL number:  0.42E+00 at (  51,   1,  51)
       Max divergence:  0.64E+00 at (  71,   1,   1)
       Min divergence: -0.41E+01 at (  71,   1,  71)
       Max VN number:   0.43E+00 at (  72,   1,  72)
       Mesh   12
       Max CFL number:  0.38E+00 at ( 128,   1,  81)
       Max divergence:  0.97E+00 at (  70,   1,  70)
       Min divergence: -0.27E-01 at (   1,   1, 124)
       Max VN number:   0.19E+00 at (   1,   1,  72)
       Mesh   13
       Max CFL number:  0.38E+00 at (  81,   1, 128)
       Max divergence:  0.97E+00 at (  70,   1,  70)
       Min divergence: -0.27E-01 at ( 124,   1,   1)
       Max VN number:   0.19E+00 at (   1,   1,  72)
       Mesh   14
       Max CFL number:  0.42E+00 at (  51,   1,  51)
       Max divergence:  0.64E+00 at (   1,   1,  71)
       Min divergence: -0.41E+01 at (  71,   1,  71)
       Max VN number:   0.43E+00 at (  72,   1,  72)
       Mesh   15
       Max CFL number:  0.38E+00 at (  81,   1, 128)
       Max divergence:  0.97E+00 at (  70,   1,  70)
       Min divergence: -0.27E-01 at ( 124,   1,   1)
       Max VN number:   0.19E+00 at (  72,   1,   1)
       Mesh   16
       Max CFL number:  0.42E+00 at (  51,   1,  51)
       Max divergence:  0.64E+00 at (   1,   1,  71)
       Min divergence: -0.41E+01 at (  71,   1,  71)
       Max VN number:   0.43E+00 at (  72,   1,  72)
 
       Time Step      60   February 19, 2020  19:32:30
       Step Size:    0.134E-02 s, Total Time:       0.07 s
       Pressure Iterations:      1
       Maximum Velocity Error:  0.11E-15 on Mesh   1 at (   0   1  68)
       Maximum Pressure Error:  0.62E+00 on Mesh   9 at (  72   1  72)
       ScaRC: iterations   217, residual  0.84E-08, convergence rate   0.88E+00
       ---------------------------------------------------------------
       Mesh    1
       Max CFL number:  0.43E+00 at (  52,   1,  52)
       Max divergence:  0.79E+00 at (   1,   1,  73)
       Min divergence: -0.47E+01 at (  73,   1,  73)
       Max VN number:   0.41E+00 at (  74,   1,  74)
       Mesh    2
       Max CFL number:  0.39E+00 at (  85,   1, 128)
       Max divergence:  0.12E+01 at (  72,   1,  72)
       Min divergence: -0.56E-01 at ( 122,   1,   1)
       Max VN number:   0.19E+00 at (  74,   1,   1)
       Mesh    3
       Max CFL number:  0.43E+00 at (  52,   1,  52)
       Max divergence:  0.79E+00 at (   1,   1,  73)
       Min divergence: -0.47E+01 at (  73,   1,  73)
       Max VN number:   0.41E+00 at (  74,   1,  74)
       Mesh    4
       Max CFL number:  0.39E+00 at (  85,   1, 128)
       Max divergence:  0.12E+01 at (  72,   1,  72)
       Min divergence: -0.56E-01 at ( 122,   1,   1)
       Max VN number:   0.19E+00 at (  74,   1,   1)
       Mesh    5
       Max CFL number:  0.39E+00 at (  85,   1, 128)
       Max divergence:  0.12E+01 at (  72,   1,  72)
       Min divergence: -0.56E-01 at (   1,   1, 122)
       Max VN number:   0.19E+00 at (   1,   1,  74)
       Mesh    6
       Max CFL number:  0.43E+00 at (  52,   1,  52)
       Max divergence:  0.79E+00 at (   1,   1,  73)
       Min divergence: -0.47E+01 at (  73,   1,  73)
       Max VN number:   0.41E+00 at (  74,   1,  74)
       Mesh    7
       Max CFL number:  0.39E+00 at (  85,   1, 128)
       Max divergence:  0.12E+01 at (  72,   1,  72)
       Min divergence: -0.56E-01 at ( 122,   1,   1)
       Max VN number:   0.19E+00 at (   1,   1,  74)
       Mesh    8
       Max CFL number:  0.43E+00 at (  52,   1,  52)
       Max divergence:  0.79E+00 at (   1,   1,  73)
       Min divergence: -0.47E+01 at (  73,   1,  73)
       Max VN number:   0.41E+00 at (  74,   1,  74)
       Mesh    9
       Max CFL number:  0.43E+00 at (  52,   1,  52)
       Max divergence:  0.79E+00 at (  73,   1,   1)
       Min divergence: -0.47E+01 at (  73,   1,  73)
       Max VN number:   0.41E+00 at (  74,   1,  74)
       Mesh   10
       Max CFL number:  0.39E+00 at ( 128,   1,  85)
       Max divergence:  0.12E+01 at (  72,   1,  72)
       Min divergence: -0.56E-01 at ( 122,   1,   1)
       Max VN number:   0.19E+00 at (  74,   1,   1)
       Mesh   11
       Max CFL number:  0.43E+00 at (  52,   1,  52)
       Max divergence:  0.79E+00 at (   1,   1,  73)
       Min divergence: -0.47E+01 at (  73,   1,  73)
       Max VN number:   0.41E+00 at (  74,   1,  74)
       Mesh   12
       Max CFL number:  0.39E+00 at (  85,   1, 128)
       Max divergence:  0.12E+01 at (  72,   1,  72)
       Min divergence: -0.56E-01 at ( 122,   1,   1)
       Max VN number:   0.19E+00 at (   1,   1,  74)
       Mesh   13
       Max CFL number:  0.39E+00 at ( 128,   1,  85)
       Max divergence:  0.12E+01 at (  72,   1,  72)
       Min divergence: -0.56E-01 at (   1,   1, 122)
       Max VN number:   0.19E+00 at (   1,   1,  74)
       Mesh   14
       Max CFL number:  0.43E+00 at (  52,   1,  52)
       Max divergence:  0.79E+00 at (  73,   1,   1)
       Min divergence: -0.47E+01 at (  73,   1,  73)
       Max VN number:   0.41E+00 at (  74,   1,  74)
       Mesh   15
       Max CFL number:  0.39E+00 at ( 128,   1,  85)
       Max divergence:  0.12E+01 at (  72,   1,  72)
       Min divergence: -0.56E-01 at ( 122,   1,   1)
       Max VN number:   0.19E+00 at (  74,   1,   1)
       Mesh   16
       Max CFL number:  0.43E+00 at (  52,   1,  52)
       Max divergence:  0.79E+00 at (   1,   1,  73)
       Min divergence: -0.47E+01 at (  73,   1,  73)
       Max VN number:   0.41E+00 at (  74,   1,  74)
 
       Time Step      70   February 19, 2020  19:32:58
       Step Size:    0.134E-02 s, Total Time:       0.09 s
       Pressure Iterations:      1
       Maximum Velocity Error:  0.11E-15 on Mesh   1 at (   0   1  62)
       Maximum Pressure Error:  0.58E+00 on Mesh   8 at (  74   1  74)
       ScaRC: iterations   219, residual  0.90E-08, convergence rate   0.88E+00
       ---------------------------------------------------------------
       Mesh    1
       Max CFL number:  0.44E+00 at (  53,   1,  53)
       Max divergence:  0.94E+00 at (  75,   1,   1)
       Min divergence: -0.51E+01 at (  75,   1,  75)
       Max VN number:   0.38E+00 at (  76,   1,  76)
       Mesh    2
       Max CFL number:  0.40E+00 at ( 128,   1,  89)
       Max divergence:  0.14E+01 at (  78,   1,  78)
       Min divergence: -0.10E+00 at (   1,   1, 119)
       Max VN number:   0.19E+00 at (   1,   1,  76)
       Mesh    3
       Max CFL number:  0.44E+00 at (  53,   1,  53)
       Max divergence:  0.94E+00 at (   1,   1,  75)
       Min divergence: -0.51E+01 at (  75,   1,  75)
       Max VN number:   0.38E+00 at (  76,   1,  76)
       Mesh    4
       Max CFL number:  0.40E+00 at ( 128,   1,  89)
       Max divergence:  0.14E+01 at (  78,   1,  78)
       Min divergence: -0.10E+00 at ( 119,   1,   1)
       Max VN number:   0.19E+00 at (   1,   1,  76)
       Mesh    5
       Max CFL number:  0.40E+00 at (  89,   1, 128)
       Max divergence:  0.14E+01 at (  78,   1,  78)
       Min divergence: -0.10E+00 at ( 119,   1,   1)
       Max VN number:   0.19E+00 at (  76,   1,   1)
       Mesh    6
       Max CFL number:  0.44E+00 at (  53,   1,  53)
       Max divergence:  0.94E+00 at (   1,   1,  75)
       Min divergence: -0.51E+01 at (  75,   1,  75)
       Max VN number:   0.38E+00 at (  76,   1,  76)
       Mesh    7
       Max CFL number:  0.40E+00 at (  89,   1, 128)
       Max divergence:  0.14E+01 at (  78,   1,  78)
       Min divergence: -0.10E+00 at (   1,   1, 119)
       Max VN number:   0.19E+00 at (   1,   1,  76)
       Mesh    8
       Max CFL number:  0.44E+00 at (  53,   1,  53)
       Max divergence:  0.94E+00 at (   1,   1,  75)
       Min divergence: -0.51E+01 at (  75,   1,  75)
       Max VN number:   0.38E+00 at (  76,   1,  76)
       Mesh    9
       Max CFL number:  0.44E+00 at (  53,   1,  53)
       Max divergence:  0.94E+00 at (  75,   1,   1)
       Min divergence: -0.51E+01 at (  75,   1,  75)
       Max VN number:   0.38E+00 at (  76,   1,  76)
       Mesh   10
       Max CFL number:  0.40E+00 at ( 128,   1,  89)
       Max divergence:  0.14E+01 at (  78,   1,  78)
       Min divergence: -0.10E+00 at ( 119,   1,   1)
       Max VN number:   0.19E+00 at (   1,   1,  76)
       Mesh   11
       Max CFL number:  0.44E+00 at (  53,   1,  53)
       Max divergence:  0.94E+00 at (  75,   1,   1)
       Min divergence: -0.51E+01 at (  75,   1,  75)
       Max VN number:   0.38E+00 at (  76,   1,  76)
       Mesh   12
       Max CFL number:  0.40E+00 at (  89,   1, 128)
       Max divergence:  0.14E+01 at (  78,   1,  78)
       Min divergence: -0.10E+00 at ( 119,   1,   1)
       Max VN number:   0.19E+00 at (  76,   1,   1)
       Mesh   13
       Max CFL number:  0.40E+00 at (  89,   1, 128)
       Max divergence:  0.14E+01 at (  78,   1,  78)
       Min divergence: -0.10E+00 at ( 119,   1,   1)
       Max VN number:   0.19E+00 at (   1,   1,  76)
       Mesh   14
       Max CFL number:  0.44E+00 at (  53,   1,  53)
       Max divergence:  0.94E+00 at (   1,   1,  75)
       Min divergence: -0.51E+01 at (  75,   1,  75)
       Max VN number:   0.38E+00 at (  76,   1,  76)
       Mesh   15
       Max CFL number:  0.40E+00 at (  89,   1, 128)
       Max divergence:  0.14E+01 at (  78,   1,  78)
       Min divergence: -0.10E+00 at (   1,   1, 119)
       Max VN number:   0.19E+00 at (  76,   1,   1)
       Mesh   16
       Max CFL number:  0.44E+00 at (  53,   1,  53)
       Max divergence:  0.94E+00 at (   1,   1,  75)
       Min divergence: -0.51E+01 at (  75,   1,  75)
       Max VN number:   0.38E+00 at (  76,   1,  76)
 
       Time Step      80   February 19, 2020  19:33:26
       Step Size:    0.134E-02 s, Total Time:       0.10 s
       Pressure Iterations:      1
       Maximum Velocity Error:  0.11E-15 on Mesh   1 at (   0   1  51)
       Maximum Pressure Error:  0.52E+00 on Mesh  11 at (  76   1  76)
       ScaRC: iterations   221, residual  0.89E-08, convergence rate   0.88E+00
       ---------------------------------------------------------------
       Mesh    1
       Max CFL number:  0.45E+00 at (  54,   1,  54)
       Max divergence:  0.11E+01 at (  76,   1,   1)
       Min divergence: -0.54E+01 at (  76,   1,  76)
       Max VN number:   0.36E+00 at (  77,   1,  77)
       Mesh    2
       Max CFL number:  0.40E+00 at (  93,   1, 128)
       Max divergence:  0.16E+01 at (  80,   1,  80)
       Min divergence: -0.18E+00 at ( 115,   1,   1)
       Max VN number:   0.20E+00 at (   1,   1,  77)
       Mesh    3
       Max CFL number:  0.45E+00 at (  54,   1,  54)
       Max divergence:  0.11E+01 at (   1,   1,  76)
       Min divergence: -0.54E+01 at (  76,   1,  76)
       Max VN number:   0.36E+00 at (  77,   1,  77)
       Mesh    4
       Max CFL number:  0.40E+00 at (  93,   1, 128)
       Max divergence:  0.16E+01 at (  80,   1,  80)
       Min divergence: -0.18E+00 at ( 115,   1,   1)
       Max VN number:   0.20E+00 at (  77,   1,   1)
       Mesh    5
       Max CFL number:  0.40E+00 at ( 128,   1,  93)
       Max divergence:  0.16E+01 at (  80,   1,  80)
       Min divergence: -0.18E+00 at (   1,   1, 115)
       Max VN number:   0.20E+00 at (  77,   1,   1)
       Mesh    6
       Max CFL number:  0.45E+00 at (  54,   1,  54)
       Max divergence:  0.11E+01 at (  76,   1,   1)
       Min divergence: -0.54E+01 at (  76,   1,  76)
       Max VN number:   0.36E+00 at (  77,   1,  77)
       Mesh    7
       Max CFL number:  0.40E+00 at ( 128,   1,  93)
       Max divergence:  0.16E+01 at (  80,   1,  80)
       Min divergence: -0.18E+00 at ( 115,   1,   1)
       Max VN number:   0.20E+00 at (   1,   1,  77)
       Mesh    8
[...]
       Max divergence:  0.49E+00 at (   7,   1, 128)
       Min divergence: -0.23E+01 at (   3,   1,   3)
       Max VN number:   0.48E+00 at (   4,   1,   4)
       Mesh    3
       Max CFL number:  0.38E+00 at ( 104,   1,   1)
       Max divergence:  0.49E+00 at (   7,   1,   7)
       Min divergence: -0.23E+01 at ( 128,   1,   3)
       Max VN number:   0.47E+00 at (   4,   1, 128)
       Mesh    4
       Max CFL number:  0.38E+00 at ( 112,   1, 112)
       Max divergence:  0.49E+00 at ( 128,   1,   7)
       Min divergence: -0.23E+01 at (   3,   1,   3)
       Max VN number:   0.48E+00 at (   4,   1,   4)
       Mesh    5
       Max CFL number:  0.38E+00 at ( 112,   1, 112)
       Max divergence:  0.49E+00 at ( 128,   1,   7)
       Min divergence: -0.23E+01 at (   3,   1,   3)
       Max VN number:   0.48E+00 at (   4,   1,   4)
       Mesh    6
       Max CFL number:  0.38E+00 at (   1,   1, 104)
       Max divergence:  0.49E+00 at (   7,   1,   7)
       Min divergence: -0.23E+01 at (   3,   1, 128)
       Max VN number:   0.47E+00 at (   4,   1, 128)
       Mesh    7
       Max CFL number:  0.38E+00 at ( 112,   1, 112)
       Max divergence:  0.49E+00 at (   7,   1, 128)
       Min divergence: -0.23E+01 at (   3,   1,   3)
       Max VN number:   0.48E+00 at (   4,   1,   4)
       Mesh    8
       Max CFL number:  0.38E+00 at (   1,   1, 104)
       Max divergence:  0.49E+00 at (   7,   1,   7)
       Min divergence: -0.23E+01 at ( 128,   1,   3)
       Max VN number:   0.47E+00 at (   4,   1, 128)
       Mesh    9
       Max CFL number:  0.38E+00 at (   1,   1, 104)
       Max divergence:  0.49E+00 at (   7,   1,   7)
       Min divergence: -0.23E+01 at ( 128,   1,   3)
       Max VN number:   0.47E+00 at (   4,   1, 128)
       Mesh   10
       Max CFL number:  0.38E+00 at ( 112,   1, 112)
       Max divergence:  0.49E+00 at ( 128,   1,   7)
       Min divergence: -0.23E+01 at (   3,   1,   3)
       Max VN number:   0.48E+00 at (   4,   1,   4)
       Mesh   11
       Max CFL number:  0.38E+00 at (   1,   1, 104)
       Max divergence:  0.49E+00 at (   7,   1,   7)
       Min divergence: -0.23E+01 at (   3,   1, 128)
       Max VN number:   0.47E+00 at ( 128,   1,   4)
       Mesh   12
       Max CFL number:  0.38E+00 at ( 112,   1, 112)
       Max divergence:  0.49E+00 at (   7,   1, 128)
       Min divergence: -0.23E+01 at (   3,   1,   3)
       Max VN number:   0.48E+00 at (   4,   1,   4)
       Mesh   13
       Max CFL number:  0.38E+00 at ( 112,   1, 112)
       Max divergence:  0.49E+00 at (   7,   1, 128)
       Min divergence: -0.23E+01 at (   3,   1,   3)
       Max VN number:   0.48E+00 at (   4,   1,   4)
       Mesh   14
       Max CFL number:  0.38E+00 at ( 104,   1,   1)
       Max divergence:  0.49E+00 at (   7,   1,   7)
       Min divergence: -0.23E+01 at (   3,   1, 128)
       Max VN number:   0.47E+00 at ( 128,   1,   4)
       Mesh   15
       Max CFL number:  0.38E+00 at ( 112,   1, 112)
       Max divergence:  0.49E+00 at ( 128,   1,   7)
       Min divergence: -0.23E+01 at (   3,   1,   3)
       Max VN number:   0.48E+00 at (   4,   1,   4)
       Mesh   16
       Max CFL number:  0.38E+00 at (   1,   1, 104)
       Max divergence:  0.49E+00 at (   7,   1,   7)
       Min divergence: -0.23E+01 at (   3,   1, 128)
       Max VN number:   0.47E+00 at ( 128,   1,   4)
 
       Time Step     500   February 19, 2020  19:53:26
       Step Size:    0.134E-02 s, Total Time:       0.66 s
       Pressure Iterations:      1
       Maximum Velocity Error:  0.11E-15 on Mesh   1 at (   0   1 118)
       Maximum Pressure Error:  0.24E+00 on Mesh   7 at (  24   1  25)
       ScaRC: iterations   224, residual  0.98E-08, convergence rate   0.87E+00
       ---------------------------------------------------------------
       Mesh    1
       Max CFL number:  0.47E+00 at ( 119,   1,   1)
       Max divergence:  0.27E+01 at (  20,   1,  20)
       Min divergence: -0.41E+01 at ( 128,   1,  21)
       Max VN number:   0.23E+00 at (  22,   1, 128)
       Mesh    2
       Max CFL number:  0.47E+00 at ( 123,   1, 123)
       Max divergence:  0.25E+01 at ( 128,   1,  20)
       Min divergence: -0.54E+01 at (  21,   1,  21)
       Max VN number:   0.25E+00 at (  22,   1,  22)
       Mesh    3
       Max CFL number:  0.47E+00 at (   1,   1, 119)
       Max divergence:  0.27E+01 at (  20,   1,  20)
       Min divergence: -0.41E+01 at (  21,   1, 128)
       Max VN number:   0.23E+00 at ( 128,   1,  22)
       Mesh    4
       Max CFL number:  0.47E+00 at ( 123,   1, 123)
       Max divergence:  0.25E+01 at ( 128,   1,  20)
       Min divergence: -0.54E+01 at (  21,   1,  21)
       Max VN number:   0.25E+00 at (  22,   1,  22)
       Mesh    5
       Max CFL number:  0.47E+00 at ( 123,   1, 123)
       Max divergence:  0.25E+01 at (  20,   1, 128)
       Min divergence: -0.54E+01 at (  21,   1,  21)
       Max VN number:   0.25E+00 at (  22,   1,  22)
       Mesh    6
       Max CFL number:  0.47E+00 at (   1,   1, 119)
       Max divergence:  0.27E+01 at (  20,   1,  20)
       Min divergence: -0.41E+01 at (  21,   1, 128)
       Max VN number:   0.23E+00 at ( 128,   1,  22)
       Mesh    7
       Max CFL number:  0.47E+00 at ( 123,   1, 123)
       Max divergence:  0.25E+01 at (  20,   1, 128)
       Min divergence: -0.54E+01 at (  21,   1,  21)
       Max VN number:   0.25E+00 at (  22,   1,  22)
       Mesh    8
       Max CFL number:  0.47E+00 at ( 119,   1,   1)
       Max divergence:  0.27E+01 at (  20,   1,  20)
       Min divergence: -0.41E+01 at (  21,   1, 128)
       Max VN number:   0.23E+00 at (  22,   1, 128)
       Mesh    9
       Max CFL number:  0.47E+00 at ( 119,   1,   1)
       Max divergence:  0.27E+01 at (  20,   1,  20)
       Min divergence: -0.41E+01 at ( 128,   1,  21)
       Max VN number:   0.23E+00 at (  22,   1, 128)
       Mesh   10
       Max CFL number:  0.47E+00 at ( 123,   1, 123)
       Max divergence:  0.25E+01 at ( 128,   1,  20)
       Min divergence: -0.54E+01 at (  21,   1,  21)
       Max VN number:   0.25E+00 at (  22,   1,  22)
       Mesh   11
       Max CFL number:  0.47E+00 at ( 119,   1,   1)
       Max divergence:  0.27E+01 at (  20,   1,  20)
       Min divergence: -0.41E+01 at ( 128,   1,  21)
       Max VN number:   0.23E+00 at ( 128,   1,  22)
       Mesh   12
       Max CFL number:  0.47E+00 at ( 123,   1, 123)
       Max divergence:  0.25E+01 at (  20,   1, 128)
       Min divergence: -0.54E+01 at (  21,   1,  21)
       Max VN number:   0.25E+00 at (  22,   1,  22)
       Mesh   13
       Max CFL number:  0.47E+00 at ( 123,   1, 123)
       Max divergence:  0.25E+01 at (  20,   1, 128)
       Min divergence: -0.54E+01 at (  21,   1,  21)
       Max VN number:   0.25E+00 at (  22,   1,  22)
       Mesh   14
       Max CFL number:  0.47E+00 at (   1,   1, 119)
       Max divergence:  0.27E+01 at (  20,   1,  20)
       Min divergence: -0.41E+01 at ( 128,   1,  21)
       Max VN number:   0.23E+00 at (  22,   1, 128)
       Mesh   15
       Max CFL number:  0.47E+00 at ( 123,   1, 123)
       Max divergence:  0.25E+01 at (  20,   1, 128)
       Min divergence: -0.54E+01 at (  21,   1,  21)
       Max VN number:   0.25E+00 at (  22,   1,  22)
       Mesh   16
       Max CFL number:  0.47E+00 at ( 119,   1,   1)
       Max divergence:  0.27E+01 at (  20,   1,  20)
       Min divergence: -0.41E+01 at ( 128,   1,  21)
       Max VN number:   0.23E+00 at (  22,   1, 128)
 
       Time Step     600   February 19, 2020  19:58:15
       Step Size:    0.134E-02 s, Total Time:       0.80 s
       Pressure Iterations:      1
       Maximum Velocity Error:  0.11E-15 on Mesh   1 at ( 129   1   4)
       Maximum Pressure Error:  0.11E+00 on Mesh   9 at (  37   1  37)
       ScaRC: iterations   226, residual  0.97E-08, convergence rate   0.87E+00
       ---------------------------------------------------------------
       Mesh    1
       Max CFL number:  0.47E+00 at (  68,   1,  67)
       Max divergence:  0.50E+01 at (  39,   1,  39)
       Min divergence: -0.23E+01 at ( 128,   1,  39)
       Max VN number:   0.21E+00 at (  39,   1,  39)
       Mesh    2
       Max CFL number:  0.45E+00 at (   1,   1,  11)
       Max divergence:  0.23E+01 at ( 128,   1,  39)
       Min divergence: -0.33E+01 at (  39,   1,  39)
       Max VN number:   0.19E+00 at (  39,   1, 128)
       Mesh    3
       Max CFL number:  0.47E+00 at (  68,   1,  67)
       Max divergence:  0.50E+01 at (  39,   1,  39)
       Min divergence: -0.23E+01 at (  39,   1, 128)
       Max VN number:   0.21E+00 at (  39,   1,  39)
       Mesh    4
       Max CFL number:  0.45E+00 at (   1,   1,  11)
       Max divergence:  0.23E+01 at (  39,   1, 128)
       Min divergence: -0.33E+01 at (  39,   1,  39)
       Max VN number:   0.19E+00 at ( 128,   1,  39)
       Mesh    5
       Max CFL number:  0.45E+00 at (  11,   1,   1)
       Max divergence:  0.23E+01 at (  39,   1, 128)
       Min divergence: -0.33E+01 at (  39,   1,  39)
       Max VN number:   0.19E+00 at ( 128,   1,  39)
       Mesh    6
       Max CFL number:  0.47E+00 at (  68,   1,  67)
       Max divergence:  0.50E+01 at (  39,   1,  39)
       Min divergence: -0.23E+01 at ( 128,   1,  39)
       Max VN number:   0.21E+00 at (  39,   1,  39)
       Mesh    7
       Max CFL number:  0.45E+00 at (  11,   1,   1)
       Max divergence:  0.23E+01 at ( 128,   1,  39)
       Min divergence: -0.33E+01 at (  39,   1,  39)
       Max VN number:   0.19E+00 at (  39,   1, 128)
       Mesh    8
       Max CFL number:  0.47E+00 at (  67,   1,  68)
       Max divergence:  0.50E+01 at (  39,   1,  39)
       Min divergence: -0.23E+01 at (  39,   1, 128)
       Max VN number:   0.21E+00 at (  39,   1,  39)
       Mesh    9
       Max CFL number:  0.47E+00 at (  68,   1,  67)
       Max divergence:  0.50E+01 at (  39,   1,  39)
       Min divergence: -0.23E+01 at ( 128,   1,  39)
       Max VN number:   0.21E+00 at (  39,   1,  39)
       Mesh   10
       Max CFL number:  0.45E+00 at (   1,   1,  11)
       Max divergence:  0.23E+01 at ( 128,   1,  39)
       Min divergence: -0.33E+01 at (  39,   1,  39)
       Max VN number:   0.19E+00 at ( 128,   1,  39)
       Mesh   11
       Max CFL number:  0.47E+00 at (  67,   1,  68)
       Max divergence:  0.50E+01 at (  39,   1,  39)
       Min divergence: -0.23E+01 at (  39,   1, 128)
       Max VN number:   0.21E+00 at (  39,   1,  39)
       Mesh   12
       Max CFL number:  0.45E+00 at (   1,   1,  11)
       Max divergence:  0.23E+01 at ( 128,   1,  39)
       Min divergence: -0.33E+01 at (  39,   1,  39)
       Max VN number:   0.19E+00 at (  39,   1, 128)
       Mesh   13
       Max CFL number:  0.45E+00 at (  11,   1,   1)
       Max divergence:  0.23E+01 at ( 128,   1,  39)
       Min divergence: -0.33E+01 at (  39,   1,  39)
       Max VN number:   0.19E+00 at (  39,   1, 128)
       Mesh   14
       Max CFL number:  0.47E+00 at (  68,   1,  67)
       Max divergence:  0.50E+01 at (  39,   1,  39)
       Min divergence: -0.23E+01 at (  39,   1, 128)
       Max VN number:   0.21E+00 at (  39,   1,  39)
       Mesh   15
       Max CFL number:  0.45E+00 at (  11,   1,   1)
       Max divergence:  0.23E+01 at (  39,   1, 128)
       Min divergence: -0.33E+01 at (  39,   1,  39)
       Max VN number:   0.19E+00 at (  39,   1, 128)
       Mesh   16
       Max CFL number:  0.47E+00 at (  67,   1,  68)
       Max divergence:  0.50E+01 at (  39,   1,  39)
       Min divergence: -0.23E+01 at ( 128,   1,  39)
       Max VN number:   0.21E+00 at (  39,   1,  39)
 
       Time Step     700   February 19, 2020  20:03:00
       Step Size:    0.134E-02 s, Total Time:       0.93 s
       Pressure Iterations:      1
       Maximum Velocity Error:  0.56E-16 on Mesh   1 at (   0   1  13)
       Maximum Pressure Error:  0.67E+00 on Mesh   8 at (  58   1  58)
       ScaRC: iterations   197, residual  0.82E-08, convergence rate   0.88E+00
       ---------------------------------------------------------------
       Mesh    1
       Max CFL number:  0.42E+00 at (  78,   1,  77)
       Max divergence:  0.44E+01 at (  56,   1,  56)
       Min divergence: -0.70E+00 at ( 128,   1,  56)
       Max VN number:   0.42E+00 at (  56,   1,  56)
       Mesh    2
       Max CFL number:  0.39E+00 at (   1,   1,  46)
       Max divergence:  0.37E-01 at ( 106,   1, 128)
       Min divergence: -0.11E+01 at (  56,   1,  56)
       Max VN number:   0.19E+00 at (  56,   1, 128)
       Mesh    3
       Max CFL number:  0.42E+00 at (  78,   1,  77)
       Max divergence:  0.44E+01 at (  56,   1,  56)
       Min divergence: -0.70E+00 at ( 128,   1,  56)
       Max VN number:   0.42E+00 at (  56,   1,  56)
       Mesh    4
       Max CFL number:  0.39E+00 at (   1,   1,  46)
       Max divergence:  0.37E-01 at ( 106,   1, 128)
       Min divergence: -0.11E+01 at (  56,   1,  56)
       Max VN number:   0.19E+00 at (  56,   1, 128)
       Mesh    5
       Max CFL number:  0.39E+00 at (  46,   1,   1)
       Max divergence:  0.37E-01 at ( 128,   1, 106)
       Min divergence: -0.11E+01 at (  56,   1,  56)
       Max VN number:   0.19E+00 at (  56,   1, 128)
       Mesh    6
       Max CFL number:  0.42E+00 at (  77,   1,  78)
       Max divergence:  0.44E+01 at (  56,   1,  56)
       Min divergence: -0.70E+00 at (  56,   1, 128)
       Max VN number:   0.42E+00 at (  56,   1,  56)
       Mesh    7
       Max CFL number:  0.39E+00 at (   1,   1,  46)
       Max divergence:  0.37E-01 at ( 106,   1, 128)
       Min divergence: -0.11E+01 at (  56,   1,  56)
       Max VN number:   0.19E+00 at (  56,   1, 128)
       Mesh    8
       Max CFL number:  0.42E+00 at (  77,   1,  78)
       Max divergence:  0.44E+01 at (  56,   1,  56)
       Min divergence: -0.70E+00 at (  56,   1, 128)
       Max VN number:   0.42E+00 at (  56,   1,  56)
       Mesh    9
       Max CFL number:  0.42E+00 at (  77,   1,  78)
       Max divergence:  0.44E+01 at (  56,   1,  56)
       Min divergence: -0.70E+00 at ( 128,   1,  56)
       Max VN number:   0.42E+00 at (  56,   1,  56)
       Mesh   10
       Max CFL number:  0.39E+00 at (  46,   1,   1)
       Max divergence:  0.37E-01 at ( 106,   1, 128)
       Min divergence: -0.11E+01 at (  56,   1,  56)
       Max VN number:   0.19E+00 at (  56,   1, 128)
       Mesh   11
       Max CFL number:  0.42E+00 at (  77,   1,  78)
       Max divergence:  0.44E+01 at (  56,   1,  56)
       Min divergence: -0.70E+00 at ( 128,   1,  56)
       Max VN number:   0.42E+00 at (  56,   1,  56)
       Mesh   12
       Max CFL number:  0.39E+00 at (   1,   1,  46)
       Max divergence:  0.37E-01 at ( 128,   1, 106)
       Min divergence: -0.11E+01 at (  56,   1,  56)
       Max VN number:   0.19E+00 at (  56,   1, 128)
       Mesh   13
       Max CFL number:  0.39E+00 at (   1,   1,  46)
       Max divergence:  0.37E-01 at ( 128,   1, 106)
       Min divergence: -0.11E+01 at (  56,   1,  56)
       Max VN number:   0.19E+00 at (  56,   1, 128)
       Mesh   14
       Max CFL number:  0.42E+00 at (  77,   1,  78)
       Max divergence:  0.44E+01 at (  56,   1,  56)
       Min divergence: -0.70E+00 at ( 128,   1,  56)
       Max VN number:   0.42E+00 at (  56,   1,  56)
       Mesh   15
       Max CFL number:  0.39E+00 at (   1,   1,  46)
       Max divergence:  0.37E-01 at ( 128,   1, 106)
       Min divergence: -0.11E+01 at (  56,   1,  56)
       Max VN number:   0.19E+00 at (  56,   1, 128)
       Mesh   16
       Max CFL number:  0.42E+00 at (  77,   1,  78)
       Max divergence:  0.44E+01 at (  56,   1,  56)
       Min divergence: -0.70E+00 at ( 128,   1,  56)
       Max VN number:   0.42E+00 at (  56,   1,  56)
 
       Time Step     750   February 19, 2020  20:05:15
       Step Size:    0.126E-02 s, Total Time:       1.00 s
       Pressure Iterations:      1
       Maximum Velocity Error:  0.11E-15 on Mesh   1 at (   0   1  14)
       Maximum Pressure Error:  0.44E+00 on Mesh   6 at (  75   1  75)
       ScaRC: iterations   202, residual  0.75E-08, convergence rate   0.88E+00
       ---------------------------------------------------------------
       Mesh    1
       Max CFL number:  0.32E+00 at (  65,   1,  65)
       Max divergence:  0.49E-01 at (  65,   1,  65)
       Min divergence: -0.17E-01 at (  67,   1,  67)
       Max VN number:   0.47E+00 at (  64,   1,  64)
       Mesh    2
       Max CFL number:  0.32E+00 at (  62,   1,  62)
       Max divergence:  0.21E-02 at (  67,   1,  67)
       Min divergence: -0.35E-02 at (  65,   1,  65)
       Max VN number:   0.16E+00 at (   1,   1,   1)
       Mesh    3
       Max CFL number:  0.32E+00 at (  65,   1,  65)
       Max divergence:  0.49E-01 at (  65,   1,  65)
       Min divergence: -0.17E-01 at (  67,   1,  67)
       Max VN number:   0.47E+00 at (  64,   1,  64)
       Mesh    4
       Max CFL number:  0.32E+00 at (  62,   1,  62)
       Max divergence:  0.21E-02 at (  67,   1,  67)
       Min divergence: -0.35E-02 at (  65,   1,  65)
       Max VN number:   0.16E+00 at (   1,   1,   1)
       Mesh    5
       Max CFL number:  0.32E+00 at (  62,   1,  62)
       Max divergence:  0.21E-02 at (  67,   1,  67)
       Min divergence: -0.35E-02 at (  65,   1,  65)
       Max VN number:   0.16E+00 at (   1,   1,   1)
       Mesh    6
       Max CFL number:  0.32E+00 at (  65,   1,  65)
       Max divergence:  0.49E-01 at (  65,   1,  65)
       Min divergence: -0.17E-01 at (  67,   1,  67)
       Max VN number:   0.47E+00 at (  64,   1,  64)
       Mesh    7
       Max CFL number:  0.32E+00 at (  62,   1,  62)
       Max divergence:  0.21E-02 at (  67,   1,  67)
       Min divergence: -0.35E-02 at (  65,   1,  65)
       Max VN number:   0.16E+00 at (   1,   1,   1)
       Mesh    8
       Max CFL number:  0.32E+00 at (  65,   1,  65)
       Max divergence:  0.49E-01 at (  65,   1,  65)
       Min divergence: -0.17E-01 at (  67,   1,  67)
       Max VN number:   0.47E+00 at (  64,   1,  64)
       Mesh    9
       Max CFL number:  0.32E+00 at (  65,   1,  65)
       Max divergence:  0.49E-01 at (  65,   1,  65)
       Min divergence: -0.17E-01 at (  67,   1,  67)
       Max VN number:   0.47E+00 at (  64,   1,  64)
       Mesh   10
       Max CFL number:  0.32E+00 at (  62,   1,  62)
       Max divergence:  0.21E-02 at (  67,   1,  67)
       Min divergence: -0.35E-02 at (  65,   1,  65)
       Max VN number:   0.16E+00 at (   1,   1,   1)
       Mesh   11
       Max CFL number:  0.32E+00 at (  65,   1,  65)
       Max divergence:  0.49E-01 at (  65,   1,  65)
       Min divergence: -0.17E-01 at (  67,   1,  67)
       Max VN number:   0.47E+00 at (  64,   1,  64)
       Mesh   12
       Max CFL number:  0.32E+00 at (  62,   1,  62)
       Max divergence:  0.21E-02 at (  67,   1,  67)
       Min divergence: -0.35E-02 at (  65,   1,  65)
       Max VN number:   0.16E+00 at (   1,   1,   1)
       Mesh   13
       Max CFL number:  0.32E+00 at (  62,   1,  62)
       Max divergence:  0.21E-02 at (  67,   1,  67)
       Min divergence: -0.35E-02 at (  65,   1,  65)
       Max VN number:   0.16E+00 at (   1,   1,   1)
       Mesh   14
       Max CFL number:  0.32E+00 at (  65,   1,  65)
       Max divergence:  0.49E-01 at (  65,   1,  65)
       Min divergence: -0.17E-01 at (  67,   1,  67)
       Max VN number:   0.47E+00 at (  64,   1,  64)
       Mesh   15
       Max CFL number:  0.32E+00 at (  62,   1,  62)
       Max divergence:  0.21E-02 at (  67,   1,  67)
       Min divergence: -0.35E-02 at (  65,   1,  65)
       Max VN number:   0.16E+00 at (   1,   1,   1)
       Mesh   16
       Max CFL number:  0.32E+00 at (  65,   1,  65)
       Max divergence:  0.49E-01 at (  65,   1,  65)
       Min divergence: -0.17E-01 at (  67,   1,  67)
       Max VN number:   0.47E+00 at (  64,   1,  64)
 


 Time Stepping Wall Clock Time (s):     2130.482
 Total Elapsed Wall Clock Time (s):     2131.310

STOP: FDS completed successfully (CHID: shunn3_16mesh_512_scarc)
