
 Fire Dynamics Simulator

 Current Date     : February 19, 2020  19:29:44
 Revision         : -master
 Revision Date    : Wed Feb 19 18:38:00 2020 +0100
 Compiler         : Intel ifort 18.0.1
 Compilation Date : Feb 19, 2020 18:48:59

 MPI Enabled;    Number of MPI Processes:      16
 OpenMP Enabled; Number of OpenMP Threads:      1

 MPI version: 3.1
 MPI library version: Intel(R) MPI Library 2018 Update 1 for Linux* OS


 Job TITLE        : Shunn et al. (2012) JCP, Problem 3, FLUX_LIMITER=CHARM
 Job ID string    : shunn3_16mesh_256_scarc


 Grid Dimensions, Mesh     1

   Cells in the X Direction            64
   Cells in the Y Direction             1
   Cells in the Z Direction            64
   Number of Grid Cells              4096


 Physical Dimensions, Mesh     1

   Length (m)                       0.500
   Width  (m)                       0.100
   Height (m)                       0.500
   Initial Time Step (s)            0.004

 Grid Dimensions, Mesh     2

   Cells in the X Direction            64
   Cells in the Y Direction             1
   Cells in the Z Direction            64
   Number of Grid Cells              4096


 Physical Dimensions, Mesh     2

   Length (m)                       0.500
   Width  (m)                       0.100
   Height (m)                       0.500
   Initial Time Step (s)            0.004

 Grid Dimensions, Mesh     3

   Cells in the X Direction            64
   Cells in the Y Direction             1
   Cells in the Z Direction            64
   Number of Grid Cells              4096


 Physical Dimensions, Mesh     3

   Length (m)                       0.500
   Width  (m)                       0.100
   Height (m)                       0.500
   Initial Time Step (s)            0.004

 Grid Dimensions, Mesh     4

   Cells in the X Direction            64
   Cells in the Y Direction             1
   Cells in the Z Direction            64
   Number of Grid Cells              4096


 Physical Dimensions, Mesh     4

   Length (m)                       0.500
   Width  (m)                       0.100
   Height (m)                       0.500
   Initial Time Step (s)            0.004

 Grid Dimensions, Mesh     5

   Cells in the X Direction            64
   Cells in the Y Direction             1
   Cells in the Z Direction            64
   Number of Grid Cells              4096


 Physical Dimensions, Mesh     5

   Length (m)                       0.500
   Width  (m)                       0.100
   Height (m)                       0.500
   Initial Time Step (s)            0.004

 Grid Dimensions, Mesh     6

   Cells in the X Direction            64
   Cells in the Y Direction             1
   Cells in the Z Direction            64
   Number of Grid Cells              4096


 Physical Dimensions, Mesh     6

   Length (m)                       0.500
   Width  (m)                       0.100
   Height (m)                       0.500
   Initial Time Step (s)            0.004

 Grid Dimensions, Mesh     7

   Cells in the X Direction            64
   Cells in the Y Direction             1
   Cells in the Z Direction            64
   Number of Grid Cells              4096


 Physical Dimensions, Mesh     7

   Length (m)                       0.500
   Width  (m)                       0.100
   Height (m)                       0.500
   Initial Time Step (s)            0.004

 Grid Dimensions, Mesh     8

   Cells in the X Direction            64
   Cells in the Y Direction             1
   Cells in the Z Direction            64
   Number of Grid Cells              4096


 Physical Dimensions, Mesh     8

   Length (m)                       0.500
   Width  (m)                       0.100
   Height (m)                       0.500
   Initial Time Step (s)            0.004

 Grid Dimensions, Mesh     9

   Cells in the X Direction            64
   Cells in the Y Direction             1
   Cells in the Z Direction            64
   Number of Grid Cells              4096


 Physical Dimensions, Mesh     9

   Length (m)                       0.500
   Width  (m)                       0.100
   Height (m)                       0.500
   Initial Time Step (s)            0.004

 Grid Dimensions, Mesh    10

   Cells in the X Direction            64
   Cells in the Y Direction             1
   Cells in the Z Direction            64
   Number of Grid Cells              4096


 Physical Dimensions, Mesh    10

   Length (m)                       0.500
   Width  (m)                       0.100
   Height (m)                       0.500
   Initial Time Step (s)            0.004

 Grid Dimensions, Mesh    11

   Cells in the X Direction            64
   Cells in the Y Direction             1
   Cells in the Z Direction            64
   Number of Grid Cells              4096


 Physical Dimensions, Mesh    11

   Length (m)                       0.500
   Width  (m)                       0.100
   Height (m)                       0.500
   Initial Time Step (s)            0.004

 Grid Dimensions, Mesh    12

   Cells in the X Direction            64
   Cells in the Y Direction             1
   Cells in the Z Direction            64
   Number of Grid Cells              4096


 Physical Dimensions, Mesh    12

   Length (m)                       0.500
   Width  (m)                       0.100
   Height (m)                       0.500
   Initial Time Step (s)            0.004

 Grid Dimensions, Mesh    13

   Cells in the X Direction            64
   Cells in the Y Direction             1
   Cells in the Z Direction            64
   Number of Grid Cells              4096


 Physical Dimensions, Mesh    13

   Length (m)                       0.500
   Width  (m)                       0.100
   Height (m)                       0.500
   Initial Time Step (s)            0.004

 Grid Dimensions, Mesh    14

   Cells in the X Direction            64
   Cells in the Y Direction             1
   Cells in the Z Direction            64
   Number of Grid Cells              4096


 Physical Dimensions, Mesh    14

   Length (m)                       0.500
   Width  (m)                       0.100
   Height (m)                       0.500
   Initial Time Step (s)            0.004

 Grid Dimensions, Mesh    15

   Cells in the X Direction            64
   Cells in the Y Direction             1
   Cells in the Z Direction            64
   Number of Grid Cells              4096


 Physical Dimensions, Mesh    15

   Length (m)                       0.500
   Width  (m)                       0.100
   Height (m)                       0.500
   Initial Time Step (s)            0.004

 Grid Dimensions, Mesh    16

   Cells in the X Direction            64
   Cells in the Y Direction             1
   Cells in the Z Direction            64
   Number of Grid Cells              4096


 Physical Dimensions, Mesh    16

   Length (m)                       0.500
   Width  (m)                       0.100
   Height (m)                       0.500
   Initial Time Step (s)            0.004

Total Number of Grid Cells         65536


 Miscellaneous Parameters

   Simulation Start Time (s)          0.0
   Simulation End Time (s)            1.0
   Ambient Temperature (C):         20.00


 Mass Fraction Transformation Matrix to Convert Species Mixtures (Columns) to Primitive Species (Rows)

                         BACKGROU  SCALAR  
   BACKGROUND            1.000000  0.000000
   SCALAR                0.000000  1.000000


 Primitive Species Information

   BACKGROUND
   Gas Species
   Molecular Weight (g/mol)            50.00000
   Ambient Density (kg/m^3)            5.000
   Enthalpy of Formation (J/kg)        2.98E+05

   SCALAR
   Gas Species
   Molecular Weight (g/mol)            10.00000
   Ambient Density (kg/m^3)            1.000
   Enthalpy of Formation (J/kg)        2.98E+05


 Tracked (Lumped) Species Information

   BACKGROUND
   Molecular Weight (g/mol)            50.00000
   Ambient Density (kg/m^3)            5.000
   Initial Mass Fraction               1.000
   Enthalpy of Formation (J/kg)      2.98E+05

   Sub Species                    Mass Fraction     Mole Fraction
   BACKGROUND                     1.000000E+00      1.000000E+00
 
     Viscosity (kg/m/s) Ambient,  293 K:  1.00E-03
                                  500 K:  1.00E-03
                                 1000 K:  1.00E-03
                                 1500 K:  1.00E-03
   Therm. Cond. (W/m/K) Ambient,  293 K:  1.41E+00
                                  500 K:  1.41E+00
                                 1000 K:  1.41E+00
                                 1500 K:  1.41E+00
        Enthalpy (J/kg) Ambient,  293 K:  2.93E+05
                                  500 K:  5.00E+05
                                 1000 K:  1.00E+06
                                 1500 K:  1.50E+06
    Spec. Heat (J/kg/K) Ambient,  293 K:  1.00E+03
                                  500 K:  1.00E+03
                                 1000 K:  1.00E+03
                                 1500 K:  1.00E+03
   Diff. Coeff. (m^2/s) Ambient,  293 K:  1.49E-05
                                  500 K:  3.69E-05
                                 1000 K:  1.17E-04
                                 1500 K:  2.30E-04

   SCALAR
   Molecular Weight (g/mol)            10.00000
   Ambient Density (kg/m^3)            1.000
   Initial Mass Fraction               0.000
   Enthalpy of Formation (J/kg)      2.98E+05

   Sub Species                    Mass Fraction     Mole Fraction
   SCALAR                         1.000000E+00      1.000000E+00
 
     Viscosity (kg/m/s) Ambient,  293 K:  1.00E-03
                                  500 K:  1.00E-03
                                 1000 K:  1.00E-03
                                 1500 K:  1.00E-03
   Therm. Cond. (W/m/K) Ambient,  293 K:  1.41E+00
                                  500 K:  1.41E+00
                                 1000 K:  1.41E+00
                                 1500 K:  1.41E+00
        Enthalpy (J/kg) Ambient,  293 K:  2.93E+05
                                  500 K:  5.00E+05
                                 1000 K:  1.00E+06
                                 1500 K:  1.50E+06
    Spec. Heat (J/kg/K) Ambient,  293 K:  1.00E+03
                                  500 K:  1.00E+03
                                 1000 K:  1.00E+03
                                 1500 K:  1.00E+03
   Diff. Coeff. (m^2/s) Ambient,  293 K:  2.57E-05
                                  500 K:  6.40E-05
                                 1000 K:  2.03E-04
                                 1500 K:  3.98E-04


 Material Information


 Surface Conditions

   0 INERT (DEFAULT)

   1 OPEN
     Passive Vent to Atmosphere

   2 MIRROR
     Symmetry Plane

   3 INTERPOLATED

   4 PERIODIC

   5 HVAC

   6 MASSLESS TRACER

   7 DROPLET

   8 EVACUATION_OUTFLOW
     Normal Velocity (m/s)         0.000

   9 MASSLESS TARGET

  10 PERIODIC WIND

  11 SLICE


 Device Coordinates

     1 Coords:     -0.000078      0.000000     -0.000078, Make: null, ID: scarc-iter, Quantity: SCARC ITERATIONS
     2 Coords:     -0.000078      0.000000     -0.000078, Make: null, ID: scarc-rate, Quantity: SCARC CONVERGENCE RATE
     3 Coords:     -0.000078      0.000000     -0.000078, Make: null, ID: scarc-res, Quantity: SCARC RESIDUAL


 Slice File Information, Mesh     1

   Sampling Interval (s)             0.001

   1 Nodes:   0  64   1   1   0  64, Quantity: VELOCITY
   2 Nodes:   0  64   1   1   0  64, Quantity: U-VELOCITY
   3 Nodes:   0  64   1   1   0  64, Quantity: W-VELOCITY
   4 Nodes:   0  64   1   1   0  64, Quantity: DENSITY
   5 Nodes:   0  64   1   1   0  64, Quantity: DIVERGENCE
   6 Nodes:   0  64   1   1   0  64, Quantity: SCALAR MASS FRACTION
   7 Nodes:   0  64   1   1   0  64, Quantity: TEMPERATURE
   8 Nodes:   0  64   1   1   0  64, Quantity: H
   9 Nodes:   0  64   1   1   0  64, Quantity: PRESSURE
  10 Nodes:   0  64   1   1   0  64, Quantity: VISCOSITY


 SCARC Information

   Discretization        STRUCTURED
   Global solver             KRYLOV
   Storage technique        COMPACT
   Preconditioner           PARDISO
   Max iterations              1000
   Stopping accuracy       0.10E-07
 
 

 Run Time Diagnostics

       Time Step       1   February 19, 2020  19:29:45
       Step Size:    0.346E-02 s, Total Time:      0.003 s
       Pressure Iterations:      1
       Maximum Velocity Error:  0.56E-16 on Mesh   1 at (  65   1   4)
       Maximum Pressure Error:  0.14E+01 on Mesh  14 at (  28   1  27)
       ScaRC: iterations   145, residual  0.91E-08, convergence rate   0.84E+00
       ---------------------------------------------------------------
       Mesh    1
       Max CFL number:  0.45E+00 at (  23,   1,  23)
       Max divergence:  0.30E-01 at (   1,   1,  33)
       Min divergence: -0.29E+00 at (  32,   1,  32)
       Max VN number:   0.32E+00 at (  33,   1,  33)
       Mesh    2
       Max CFL number:  0.45E+00 at (  64,   1,  33)
       Max divergence:  0.55E-01 at (  32,   1,  32)
       Min divergence:  0.28E-04 at (   1,   1,   1)
       Max VN number:   0.11E+00 at (   1,   1,   1)
       Mesh    3
       Max CFL number:  0.45E+00 at (  23,   1,  23)
       Max divergence:  0.30E-01 at (   1,   1,  33)
       Min divergence: -0.29E+00 at (  32,   1,  32)
       Max VN number:   0.32E+00 at (  33,   1,  33)
       Mesh    4
       Max CFL number:  0.45E+00 at (  33,   1,  64)
       Max divergence:  0.55E-01 at (  32,   1,  32)
       Min divergence:  0.28E-04 at (   1,   1,   1)
       Max VN number:   0.11E+00 at (   1,   1,   1)
       Mesh    5
       Max CFL number:  0.45E+00 at (  33,   1,  64)
       Max divergence:  0.55E-01 at (  32,   1,  32)
       Min divergence:  0.28E-04 at (   1,   1,   1)
       Max VN number:   0.11E+00 at (   1,   1,   1)
       Mesh    6
       Max CFL number:  0.45E+00 at (  23,   1,  23)
       Max divergence:  0.30E-01 at (   1,   1,  33)
       Min divergence: -0.29E+00 at (  32,   1,  32)
       Max VN number:   0.32E+00 at (  33,   1,  33)
       Mesh    7
       Max CFL number:  0.45E+00 at (  33,   1,  64)
       Max divergence:  0.55E-01 at (  32,   1,  32)
       Min divergence:  0.28E-04 at (   1,   1,   1)
       Max VN number:   0.11E+00 at (   1,   1,   1)
       Mesh    8
       Max CFL number:  0.45E+00 at (  23,   1,  23)
       Max divergence:  0.30E-01 at (   1,   1,  33)
       Min divergence: -0.29E+00 at (  32,   1,  32)
       Max VN number:   0.32E+00 at (  33,   1,  33)
       Mesh    9
       Max CFL number:  0.45E+00 at (  23,   1,  23)
       Max divergence:  0.30E-01 at (  33,   1,   1)
       Min divergence: -0.29E+00 at (  32,   1,  32)
       Max VN number:   0.32E+00 at (  33,   1,  33)
       Mesh   10
       Max CFL number:  0.45E+00 at (  64,   1,  33)
       Max divergence:  0.55E-01 at (  32,   1,  32)
       Min divergence:  0.28E-04 at (   1,   1,   1)
       Max VN number:   0.11E+00 at (   1,   1,   1)
       Mesh   11
       Max CFL number:  0.45E+00 at (  23,   1,  23)
       Max divergence:  0.30E-01 at (   1,   1,  33)
       Min divergence: -0.29E+00 at (  32,   1,  32)
       Max VN number:   0.32E+00 at (  33,   1,  33)
       Mesh   12
       Max CFL number:  0.45E+00 at (  64,   1,  33)
       Max divergence:  0.55E-01 at (  32,   1,  32)
       Min divergence:  0.28E-04 at (   1,   1,   1)
       Max VN number:   0.11E+00 at (   1,   1,   1)
       Mesh   13
       Max CFL number:  0.45E+00 at (  33,   1,  64)
       Max divergence:  0.55E-01 at (  32,   1,  32)
       Min divergence:  0.28E-04 at (   1,   1,   1)
       Max VN number:   0.11E+00 at (   1,   1,   1)
       Mesh   14
       Max CFL number:  0.45E+00 at (  23,   1,  23)
       Max divergence:  0.30E-01 at (  33,   1,   1)
       Min divergence: -0.29E+00 at (  32,   1,  32)
       Max VN number:   0.32E+00 at (  33,   1,  33)
       Mesh   15
       Max CFL number:  0.45E+00 at (  33,   1,  64)
       Max divergence:  0.55E-01 at (  32,   1,  32)
       Min divergence:  0.28E-04 at (   1,   1,   1)
       Max VN number:   0.11E+00 at (   1,   1,   1)
       Mesh   16
       Max CFL number:  0.45E+00 at (  23,   1,  23)
       Max divergence:  0.30E-01 at (  33,   1,   1)
       Min divergence: -0.29E+00 at (  32,   1,  32)
       Max VN number:   0.32E+00 at (  33,   1,  33)
 
       Time Step       2   February 19, 2020  19:29:45
       Step Size:    0.346E-02 s, Total Time:      0.007 s
       Pressure Iterations:      1
       Maximum Velocity Error:  0.56E-16 on Mesh   1 at (  65   1   4)
       Maximum Pressure Error:  0.12E+01 on Mesh   9 at (  28   1  28)
       ScaRC: iterations   147, residual  0.64E-08, convergence rate   0.84E+00
       ---------------------------------------------------------------
       Mesh    1
       Max CFL number:  0.45E+00 at (  24,   1,  23)
       Max divergence:  0.60E-01 at (  33,   1,   1)
       Min divergence: -0.57E+00 at (  32,   1,  32)
       Max VN number:   0.32E+00 at (  33,   1,  33)
       Mesh    2
       Max CFL number:  0.45E+00 at (  34,   1,  64)
       Max divergence:  0.11E+00 at (  32,   1,  32)
       Min divergence:  0.24E-05 at (   1,   1,   1)
       Max VN number:   0.11E+00 at (   1,   1,   1)
       Mesh    3
       Max CFL number:  0.45E+00 at (  24,   1,  23)
       Max divergence:  0.60E-01 at (   1,   1,  33)
       Min divergence: -0.57E+00 at (  32,   1,  32)
       Max VN number:   0.32E+00 at (  33,   1,  33)
       Mesh    4
       Max CFL number:  0.45E+00 at (  34,   1,  64)
       Max divergence:  0.11E+00 at (  32,   1,  32)
       Min divergence:  0.24E-05 at (   1,   1,   1)
       Max VN number:   0.11E+00 at (   1,   1,   1)
       Mesh    5
       Max CFL number:  0.45E+00 at (  64,   1,  34)
       Max divergence:  0.11E+00 at (  32,   1,  32)
       Min divergence:  0.24E-05 at (   1,   1,   1)
       Max VN number:   0.11E+00 at (   1,   1,   1)
       Mesh    6
       Max CFL number:  0.45E+00 at (  23,   1,  24)
       Max divergence:  0.60E-01 at (  33,   1,   1)
       Min divergence: -0.57E+00 at (  32,   1,  32)
       Max VN number:   0.32E+00 at (  33,   1,  33)
       Mesh    7
       Max CFL number:  0.45E+00 at (  34,   1,  64)
       Max divergence:  0.11E+00 at (  32,   1,  32)
       Min divergence:  0.24E-05 at (   1,   1,   1)
       Max VN number:   0.11E+00 at (   1,   1,   1)
       Mesh    8
       Max CFL number:  0.45E+00 at (  23,   1,  24)
       Max divergence:  0.60E-01 at (  33,   1,   1)
       Min divergence: -0.57E+00 at (  32,   1,  32)
       Max VN number:   0.32E+00 at (  33,   1,  33)
       Mesh    9
       Max CFL number:  0.45E+00 at (  23,   1,  24)
       Max divergence:  0.60E-01 at (  33,   1,   1)
       Min divergence: -0.57E+00 at (  32,   1,  32)
       Max VN number:   0.32E+00 at (  33,   1,  33)
       Mesh   10
       Max CFL number:  0.45E+00 at (  64,   1,  34)
       Max divergence:  0.11E+00 at (  32,   1,  32)
       Min divergence:  0.24E-05 at (   1,   1,   1)
       Max VN number:   0.11E+00 at (   1,   1,   1)
       Mesh   11
       Max CFL number:  0.45E+00 at (  23,   1,  24)
       Max divergence:  0.60E-01 at (  33,   1,   1)
       Min divergence: -0.57E+00 at (  32,   1,  32)
       Max VN number:   0.32E+00 at (  33,   1,  33)
       Mesh   12
       Max CFL number:  0.45E+00 at (  64,   1,  34)
       Max divergence:  0.11E+00 at (  32,   1,  32)
       Min divergence:  0.24E-05 at (   1,   1,   1)
       Max VN number:   0.11E+00 at (   1,   1,   1)
       Mesh   13
       Max CFL number:  0.45E+00 at (  64,   1,  34)
       Max divergence:  0.11E+00 at (  32,   1,  32)
       Min divergence:  0.24E-05 at (   1,   1,   1)
       Max VN number:   0.11E+00 at (   1,   1,   1)
       Mesh   14
       Max CFL number:  0.45E+00 at (  23,   1,  24)
       Max divergence:  0.60E-01 at (   1,   1,  33)
       Min divergence: -0.57E+00 at (  32,   1,  32)
       Max VN number:   0.32E+00 at (  33,   1,  33)
       Mesh   15
       Max CFL number:  0.45E+00 at (  34,   1,  64)
       Max divergence:  0.11E+00 at (  32,   1,  32)
       Min divergence:  0.24E-05 at (   1,   1,   1)
       Max VN number:   0.11E+00 at (   1,   1,   1)
       Mesh   16
       Max CFL number:  0.45E+00 at (  23,   1,  24)
       Max divergence:  0.60E-01 at (   1,   1,  33)
       Min divergence: -0.57E+00 at (  32,   1,  32)
       Max VN number:   0.32E+00 at (  33,   1,  33)
 
       Time Step       3   February 19, 2020  19:29:46
       Step Size:    0.346E-02 s, Total Time:       0.01 s
       Pressure Iterations:      1
       Maximum Velocity Error:  0.11E-15 on Mesh   1 at (   0   1  56)
       Maximum Pressure Error:  0.13E+01 on Mesh   1 at (  28   1  28)
       ScaRC: iterations   147, residual  0.82E-08, convergence rate   0.84E+00
       ---------------------------------------------------------------
       Mesh    1
       Max CFL number:  0.46E+00 at (  24,   1,  24)
       Max divergence:  0.92E-01 at (   1,   1,  33)
       Min divergence: -0.84E+00 at (  32,   1,  32)
       Max VN number:   0.32E+00 at (  33,   1,  33)
       Mesh    2
       Max CFL number:  0.45E+00 at (  64,   1,  34)
       Max divergence:  0.17E+00 at (  32,   1,  32)
       Min divergence:  0.29E-04 at (   1,   1,   1)
       Max VN number:   0.11E+00 at (  33,   1,   1)
       Mesh    3
       Max CFL number:  0.46E+00 at (  24,   1,  24)
       Max divergence:  0.92E-01 at (   1,   1,  33)
       Min divergence: -0.84E+00 at (  32,   1,  32)
       Max VN number:   0.32E+00 at (  33,   1,  33)
       Mesh    4
       Max CFL number:  0.45E+00 at (  34,   1,  64)
       Max divergence:  0.17E+00 at (  32,   1,  32)
       Min divergence:  0.29E-04 at (   1,   1,   1)
       Max VN number:   0.11E+00 at (  33,   1,   1)
       Mesh    5
       Max CFL number:  0.45E+00 at (  34,   1,  64)
       Max divergence:  0.17E+00 at (  32,   1,  32)
       Min divergence:  0.29E-04 at (   1,   1,   1)
       Max VN number:   0.11E+00 at (   1,   1,  33)
       Mesh    6
       Max CFL number:  0.46E+00 at (  24,   1,  24)
       Max divergence:  0.92E-01 at (  33,   1,   1)
       Min divergence: -0.84E+00 at (  32,   1,  32)
       Max VN number:   0.32E+00 at (  33,   1,  33)
       Mesh    7
       Max CFL number:  0.45E+00 at (  34,   1,  64)
       Max divergence:  0.17E+00 at (  32,   1,  32)
       Min divergence:  0.29E-04 at (   1,   1,   1)
       Max VN number:   0.11E+00 at (  33,   1,   1)
       Mesh    8
       Max CFL number:  0.46E+00 at (  24,   1,  24)
       Max divergence:  0.92E-01 at (  33,   1,   1)
       Min divergence: -0.84E+00 at (  32,   1,  32)
       Max VN number:   0.32E+00 at (  33,   1,  33)
       Mesh    9
       Max CFL number:  0.46E+00 at (  24,   1,  24)
       Max divergence:  0.92E-01 at (  33,   1,   1)
       Min divergence: -0.84E+00 at (  32,   1,  32)
       Max VN number:   0.32E+00 at (  33,   1,  33)
       Mesh   10
       Max CFL number:  0.45E+00 at (  64,   1,  34)
       Max divergence:  0.17E+00 at (  32,   1,  32)
       Min divergence:  0.29E-04 at (   1,   1,   1)
       Max VN number:   0.11E+00 at (   1,   1,  33)
       Mesh   11
       Max CFL number:  0.46E+00 at (  24,   1,  24)
       Max divergence:  0.92E-01 at (  33,   1,   1)
       Min divergence: -0.84E+00 at (  32,   1,  32)
       Max VN number:   0.32E+00 at (  33,   1,  33)
       Mesh   12
       Max CFL number:  0.45E+00 at (  64,   1,  34)
       Max divergence:  0.17E+00 at (  32,   1,  32)
       Min divergence:  0.29E-04 at (   1,   1,   1)
       Max VN number:   0.11E+00 at (   1,   1,  33)
       Mesh   13
       Max CFL number:  0.45E+00 at (  34,   1,  64)
       Max divergence:  0.17E+00 at (  32,   1,  32)
       Min divergence:  0.29E-04 at (   1,   1,   1)
       Max VN number:   0.11E+00 at (   1,   1,  33)
       Mesh   14
       Max CFL number:  0.46E+00 at (  24,   1,  24)
       Max divergence:  0.92E-01 at (   1,   1,  33)
       Min divergence: -0.84E+00 at (  32,   1,  32)
       Max VN number:   0.32E+00 at (  33,   1,  33)
       Mesh   15
       Max CFL number:  0.45E+00 at (  34,   1,  64)
       Max divergence:  0.17E+00 at (  32,   1,  32)
       Min divergence:  0.29E-04 at (   1,   1,   1)
       Max VN number:   0.11E+00 at (  33,   1,   1)
       Mesh   16
       Max CFL number:  0.46E+00 at (  24,   1,  24)
       Max divergence:  0.92E-01 at (   1,   1,  33)
       Min divergence: -0.84E+00 at (  32,   1,  32)
       Max VN number:   0.32E+00 at (  33,   1,  33)
 
       Time Step       4   February 19, 2020  19:29:46
       Step Size:    0.346E-02 s, Total Time:       0.01 s
       Pressure Iterations:      1
       Maximum Velocity Error:  0.56E-16 on Mesh   1 at (  65   1  46)
       Maximum Pressure Error:  0.13E+01 on Mesh   8 at (  29   1  29)
       ScaRC: iterations   148, residual  0.77E-08, convergence rate   0.84E+00
       ---------------------------------------------------------------
       Mesh    1
       Max CFL number:  0.47E+00 at (  24,   1,  24)
       Max divergence:  0.12E+00 at (  33,   1,   1)
       Min divergence: -0.11E+01 at (  32,   1,  32)
       Max VN number:   0.32E+00 at (  33,   1,  33)
       Mesh    2
       Max CFL number:  0.46E+00 at (  64,   1,  35)
       Max divergence:  0.22E+00 at (  32,   1,  32)
       Min divergence: -0.54E-04 at (   2,   1,   1)
       Max VN number:   0.11E+00 at (  33,   1,   1)
       Mesh    3
       Max CFL number:  0.47E+00 at (  24,   1,  24)
       Max divergence:  0.12E+00 at (   1,   1,  33)
       Min divergence: -0.11E+01 at (  32,   1,  32)
       Max VN number:   0.32E+00 at (  33,   1,  33)
       Mesh    4
       Max CFL number:  0.46E+00 at (  35,   1,  64)
       Max divergence:  0.22E+00 at (  32,   1,  32)
       Min divergence: -0.54E-04 at (   1,   1,   2)
       Max VN number:   0.11E+00 at (  33,   1,   1)
       Mesh    5
       Max CFL number:  0.46E+00 at (  35,   1,  64)
       Max divergence:  0.22E+00 at (  32,   1,  32)
       Min divergence: -0.54E-04 at (   2,   1,   1)
       Max VN number:   0.11E+00 at (   1,   1,  33)
       Mesh    6
       Max CFL number:  0.47E+00 at (  24,   1,  24)
       Max divergence:  0.12E+00 at (  33,   1,   1)
       Min divergence: -0.11E+01 at (  32,   1,  32)
       Max VN number:   0.32E+00 at (  33,   1,  33)
       Mesh    7
       Max CFL number:  0.46E+00 at (  35,   1,  64)
       Max divergence:  0.22E+00 at (  32,   1,  32)
       Min divergence: -0.54E-04 at (   2,   1,   1)
       Max VN number:   0.11E+00 at (  33,   1,   1)
       Mesh    8
       Max CFL number:  0.47E+00 at (  24,   1,  24)
       Max divergence:  0.12E+00 at (  33,   1,   1)
       Min divergence: -0.11E+01 at (  32,   1,  32)
       Max VN number:   0.32E+00 at (  33,   1,  33)
       Mesh    9
       Max CFL number:  0.47E+00 at (  24,   1,  24)
       Max divergence:  0.12E+00 at (  33,   1,   1)
       Min divergence: -0.11E+01 at (  32,   1,  32)
       Max VN number:   0.32E+00 at (  33,   1,  33)
       Mesh   10
       Max CFL number:  0.46E+00 at (  64,   1,  35)
       Max divergence:  0.22E+00 at (  32,   1,  32)
       Min divergence: -0.54E-04 at (   1,   1,   2)
       Max VN number:   0.11E+00 at (   1,   1,  33)
       Mesh   11
       Max CFL number:  0.47E+00 at (  24,   1,  24)
       Max divergence:  0.12E+00 at (   1,   1,  33)
       Min divergence: -0.11E+01 at (  32,   1,  32)
       Max VN number:   0.32E+00 at (  33,   1,  33)
       Mesh   12
       Max CFL number:  0.46E+00 at (  64,   1,  35)
       Max divergence:  0.22E+00 at (  32,   1,  32)
       Min divergence: -0.54E-04 at (   2,   1,   1)
       Max VN number:   0.11E+00 at (   1,   1,  33)
       Mesh   13
       Max CFL number:  0.46E+00 at (  64,   1,  35)
       Max divergence:  0.22E+00 at (  32,   1,  32)
       Min divergence: -0.54E-04 at (   2,   1,   1)
       Max VN number:   0.11E+00 at (   1,   1,  33)
       Mesh   14
       Max CFL number:  0.47E+00 at (  24,   1,  24)
       Max divergence:  0.12E+00 at (   1,   1,  33)
       Min divergence: -0.11E+01 at (  32,   1,  32)
       Max VN number:   0.32E+00 at (  33,   1,  33)
       Mesh   15
       Max CFL number:  0.46E+00 at (  35,   1,  64)
       Max divergence:  0.22E+00 at (  32,   1,  32)
       Min divergence: -0.54E-04 at (   2,   1,   1)
       Max VN number:   0.11E+00 at (   1,   1,  33)
       Mesh   16
       Max CFL number:  0.47E+00 at (  24,   1,  24)
       Max divergence:  0.12E+00 at (  33,   1,   1)
       Min divergence: -0.11E+01 at (  32,   1,  32)
       Max VN number:   0.32E+00 at (  33,   1,  33)
 
       Time Step       5   February 19, 2020  19:29:47
       Step Size:    0.346E-02 s, Total Time:       0.02 s
       Pressure Iterations:      1
       Maximum Velocity Error:  0.56E-16 on Mesh   1 at (  65   1   4)
       Maximum Pressure Error:  0.14E+01 on Mesh   1 at (  28   1  32)
       ScaRC: iterations   148, residual  0.92E-08, convergence rate   0.84E+00
       ---------------------------------------------------------------
       Mesh    1
       Max CFL number:  0.47E+00 at (  24,   1,  24)
       Max divergence:  0.16E+00 at (  34,   1,   1)
       Min divergence: -0.13E+01 at (  35,   1,  35)
       Max VN number:   0.31E+00 at (  34,   1,  34)
       Mesh    2
       Max CFL number:  0.46E+00 at (  64,   1,  35)
       Max divergence:  0.27E+00 at (  32,   1,  32)
       Min divergence: -0.87E-04 at (   1,   1,   3)
       Max VN number:   0.11E+00 at (  33,   1,   1)
       Mesh    3
       Max CFL number:  0.47E+00 at (  24,   1,  24)
       Max divergence:  0.16E+00 at (   1,   1,  34)
       Min divergence: -0.13E+01 at (  35,   1,  35)
       Max VN number:   0.31E+00 at (  34,   1,  34)
       Mesh    4
       Max CFL number:  0.46E+00 at (  35,   1,  64)
       Max divergence:  0.27E+00 at (  32,   1,  32)
       Min divergence: -0.87E-04 at (   1,   1,   3)
       Max VN number:   0.11E+00 at (   1,   1,  33)
       Mesh    5
       Max CFL number:  0.46E+00 at (  35,   1,  64)
       Max divergence:  0.27E+00 at (  32,   1,  32)
       Min divergence: -0.87E-04 at (   3,   1,   1)
       Max VN number:   0.11E+00 at (   1,   1,  33)
       Mesh    6
       Max CFL number:  0.47E+00 at (  24,   1,  24)
       Max divergence:  0.16E+00 at (   1,   1,  34)
       Min divergence: -0.13E+01 at (  35,   1,  35)
       Max VN number:   0.31E+00 at (  34,   1,  34)
       Mesh    7
       Max CFL number:  0.46E+00 at (  35,   1,  64)
       Max divergence:  0.27E+00 at (  32,   1,  32)
       Min divergence: -0.87E-04 at (   3,   1,   1)
       Max VN number:   0.11E+00 at (  33,   1,   1)
       Mesh    8
       Max CFL number:  0.47E+00 at (  24,   1,  24)
       Max divergence:  0.16E+00 at (  34,   1,   1)
       Min divergence: -0.13E+01 at (  35,   1,  35)
       Max VN number:   0.31E+00 at (  34,   1,  34)
       Mesh    9
       Max CFL number:  0.47E+00 at (  24,   1,  24)
       Max divergence:  0.16E+00 at (  34,   1,   1)
       Min divergence: -0.13E+01 at (  35,   1,  35)
       Max VN number:   0.31E+00 at (  34,   1,  34)
       Mesh   10
       Max CFL number:  0.46E+00 at (  64,   1,  35)
       Max divergence:  0.27E+00 at (  32,   1,  32)
       Min divergence: -0.87E-04 at (   1,   1,   3)
       Max VN number:   0.11E+00 at (   1,   1,  33)
       Mesh   11
       Max CFL number:  0.47E+00 at (  24,   1,  24)
       Max divergence:  0.16E+00 at (   1,   1,  34)
       Min divergence: -0.13E+01 at (  35,   1,  35)
       Max VN number:   0.31E+00 at (  34,   1,  34)
       Mesh   12
       Max CFL number:  0.46E+00 at (  64,   1,  35)
       Max divergence:  0.27E+00 at (  32,   1,  32)
       Min divergence: -0.87E-04 at (   3,   1,   1)
       Max VN number:   0.11E+00 at (   1,   1,  33)
       Mesh   13
       Max CFL number:  0.46E+00 at (  64,   1,  35)
       Max divergence:  0.27E+00 at (  32,   1,  32)
       Min divergence: -0.87E-04 at (   3,   1,   1)
       Max VN number:   0.11E+00 at (  33,   1,   1)
       Mesh   14
       Max CFL number:  0.47E+00 at (  24,   1,  24)
       Max divergence:  0.16E+00 at (   1,   1,  34)
       Min divergence: -0.13E+01 at (  35,   1,  35)
       Max VN number:   0.31E+00 at (  34,   1,  34)
       Mesh   15
       Max CFL number:  0.46E+00 at (  35,   1,  64)
       Max divergence:  0.27E+00 at (  32,   1,  32)
       Min divergence: -0.87E-04 at (   3,   1,   1)
       Max VN number:   0.11E+00 at (  33,   1,   1)
       Mesh   16
       Max CFL number:  0.47E+00 at (  24,   1,  24)
       Max divergence:  0.16E+00 at (   1,   1,  34)
       Min divergence: -0.13E+01 at (  35,   1,  35)
       Max VN number:   0.31E+00 at (  34,   1,  34)
 
       Time Step       6   February 19, 2020  19:29:47
       Step Size:    0.346E-02 s, Total Time:       0.02 s
       Pressure Iterations:      1
       Maximum Velocity Error:  0.11E-15 on Mesh   3 at (  12   1   0)
       Maximum Pressure Error:  0.14E+01 on Mesh   3 at (  32   1  29)
       ScaRC: iterations   149, residual  0.89E-08, convergence rate   0.84E+00
       ---------------------------------------------------------------
       Mesh    1
       Max CFL number:  0.48E+00 at (  24,   1,  24)
       Max divergence:  0.19E+00 at (  34,   1,   1)
       Min divergence: -0.16E+01 at (  33,   1,  33)
       Max VN number:   0.31E+00 at (  34,   1,  34)
       Mesh    2
       Max CFL number:  0.46E+00 at (  36,   1,  64)
       Max divergence:  0.33E+00 at (  32,   1,  32)
       Min divergence: -0.38E-03 at (   1,   1,   3)
       Max VN number:   0.11E+00 at (   1,   1,  34)
       Mesh    3
       Max CFL number:  0.48E+00 at (  24,   1,  24)
       Max divergence:  0.19E+00 at (   1,   1,  34)
       Min divergence: -0.16E+01 at (  33,   1,  33)
       Max VN number:   0.31E+00 at (  34,   1,  34)
       Mesh    4
       Max CFL number:  0.46E+00 at (  36,   1,  64)
       Max divergence:  0.33E+00 at (  32,   1,  32)
       Min divergence: -0.38E-03 at (   3,   1,   1)
       Max VN number:   0.11E+00 at (   1,   1,  34)
       Mesh    5
       Max CFL number:  0.46E+00 at (  64,   1,  36)
       Max divergence:  0.33E+00 at (  32,   1,  32)
       Min divergence: -0.38E-03 at (   3,   1,   1)
       Max VN number:   0.11E+00 at (  34,   1,   1)
       Mesh    6
       Max CFL number:  0.48E+00 at (  24,   1,  24)
       Max divergence:  0.19E+00 at (   1,   1,  34)
       Min divergence: -0.16E+01 at (  33,   1,  33)
       Max VN number:   0.31E+00 at (  34,   1,  34)
       Mesh    7
       Max CFL number:  0.46E+00 at (  36,   1,  64)
       Max divergence:  0.33E+00 at (  32,   1,  32)
       Min divergence: -0.38E-03 at (   3,   1,   1)
       Max VN number:   0.11E+00 at (   1,   1,  34)
       Mesh    8
       Max CFL number:  0.48E+00 at (  24,   1,  24)
       Max divergence:  0.19E+00 at (   1,   1,  34)
       Min divergence: -0.16E+01 at (  33,   1,  33)
       Max VN number:   0.31E+00 at (  34,   1,  34)
       Mesh    9
       Max CFL number:  0.48E+00 at (  24,   1,  24)
       Max divergence:  0.19E+00 at (  34,   1,   1)
       Min divergence: -0.16E+01 at (  33,   1,  33)
       Max VN number:   0.31E+00 at (  34,   1,  34)
       Mesh   10
       Max CFL number:  0.46E+00 at (  64,   1,  36)
       Max divergence:  0.33E+00 at (  32,   1,  32)
       Min divergence: -0.38E-03 at (   3,   1,   1)
       Max VN number:   0.11E+00 at (  34,   1,   1)
       Mesh   11
       Max CFL number:  0.48E+00 at (  24,   1,  24)
       Max divergence:  0.19E+00 at (  34,   1,   1)
       Min divergence: -0.16E+01 at (  33,   1,  33)
       Max VN number:   0.31E+00 at (  34,   1,  34)
       Mesh   12
       Max CFL number:  0.46E+00 at (  36,   1,  64)
       Max divergence:  0.33E+00 at (  32,   1,  32)
       Min divergence: -0.38E-03 at (   3,   1,   1)
       Max VN number:   0.11E+00 at (   1,   1,  34)
       Mesh   13
       Max CFL number:  0.46E+00 at (  64,   1,  36)
       Max divergence:  0.33E+00 at (  32,   1,  32)
       Min divergence: -0.38E-03 at (   1,   1,   3)
       Max VN number:   0.11E+00 at (  34,   1,   1)
       Mesh   14
       Max CFL number:  0.48E+00 at (  24,   1,  24)
       Max divergence:  0.19E+00 at (  34,   1,   1)
       Min divergence: -0.16E+01 at (  33,   1,  33)
       Max VN number:   0.31E+00 at (  34,   1,  34)
       Mesh   15
       Max CFL number:  0.46E+00 at (  64,   1,  36)
       Max divergence:  0.33E+00 at (  32,   1,  32)
       Min divergence: -0.38E-03 at (   1,   1,   3)
       Max VN number:   0.11E+00 at (  34,   1,   1)
       Mesh   16
       Max CFL number:  0.48E+00 at (  24,   1,  24)
       Max divergence:  0.19E+00 at (   1,   1,  34)
       Min divergence: -0.16E+01 at (  33,   1,  33)
       Max VN number:   0.31E+00 at (  34,   1,  34)
 
       Time Step       7   February 19, 2020  19:29:47
       Step Size:    0.346E-02 s, Total Time:       0.02 s
       Pressure Iterations:      1
       Maximum Velocity Error:  0.56E-16 on Mesh   1 at (  65   1  15)
       Maximum Pressure Error:  0.14E+01 on Mesh  14 at (  32   1  30)
       ScaRC: iterations   150, residual  0.79E-08, convergence rate   0.84E+00
       ---------------------------------------------------------------
       Mesh    1
       Max CFL number:  0.48E+00 at (  24,   1,  25)
       Max divergence:  0.23E+00 at (  34,   1,   1)
       Min divergence: -0.19E+01 at (  33,   1,  33)
       Max div. error:  0.11E-07 at (   1,   1,  43)
       Max VN number:   0.31E+00 at (  34,   1,  34)
       Mesh    2
       Max CFL number:  0.46E+00 at (  64,   1,  36)
       Max divergence:  0.38E+00 at (  33,   1,  33)
       Min divergence: -0.66E-03 at (   4,   1,   1)
       Max div. error:  0.11E-07 at (  47,   1,   1)
       Max VN number:   0.11E+00 at (  34,   1,   1)
       Mesh    3
       Max CFL number:  0.48E+00 at (  24,   1,  25)
       Max divergence:  0.23E+00 at (   1,   1,  34)
       Min divergence: -0.19E+01 at (  33,   1,  33)
       Max div. error:  0.11E-07 at (  60,   1,   1)
       Max VN number:   0.31E+00 at (  34,   1,  34)
       Mesh    4
       Max CFL number:  0.46E+00 at (  64,   1,  36)
       Max divergence:  0.38E+00 at (  33,   1,  33)
       Min divergence: -0.66E-03 at (   1,   1,   4)
       Max div. error:  0.11E-07 at (  64,   1,  39)
       Max VN number:   0.11E+00 at (   1,   1,  34)
       Mesh    5
       Max CFL number:  0.46E+00 at (  36,   1,  64)
       Max divergence:  0.38E+00 at (  33,   1,  33)
       Min divergence: -0.66E-03 at (   1,   1,   4)
       Max div. error:  0.11E-07 at (   1,   1,  60)
       Max VN number:   0.11E+00 at (   1,   1,  34)
       Mesh    6
       Max CFL number:  0.48E+00 at (  24,   1,  25)
       Max divergence:  0.23E+00 at (   1,   1,  34)
       Min divergence: -0.19E+01 at (  33,   1,  33)
       Max div. error:  0.11E-07 at (  48,   1,  64)
       Max VN number:   0.31E+00 at (  34,   1,  34)
       Mesh    7
       Max CFL number:  0.46E+00 at (  36,   1,  64)
       Max divergence:  0.38E+00 at (  33,   1,  33)
       Min divergence: -0.66E-03 at (   4,   1,   1)
       Max div. error:  0.11E-07 at (   1,   1,  64)
       Max VN number:   0.11E+00 at (  34,   1,   1)
       Mesh    8
       Max CFL number:  0.48E+00 at (  24,   1,  25)
       Max divergence:  0.23E+00 at (  34,   1,   1)
       Min divergence: -0.19E+01 at (  33,   1,  33)
       Max div. error:  0.11E-07 at (  64,   1,  17)
       Max VN number:   0.31E+00 at (  34,   1,  34)
       Mesh    9
       Max CFL number:  0.48E+00 at (  25,   1,  24)
       Max divergence:  0.23E+00 at (  34,   1,   1)
       Min divergence: -0.19E+01 at (  33,   1,  33)
       Max div. error:  0.11E-07 at (   1,   1,  60)
       Max VN number:   0.31E+00 at (  34,   1,  34)
       Mesh   10
       Max CFL number:  0.46E+00 at (  64,   1,  36)
       Max divergence:  0.38E+00 at (  33,   1,  33)
       Min divergence: -0.66E-03 at (   4,   1,   1)
       Max div. error:  0.11E-07 at (  64,   1,   1)
       Max VN number:   0.11E+00 at (   1,   1,  34)
       Mesh   11
       Max CFL number:  0.48E+00 at (  25,   1,  24)
       Max divergence:  0.23E+00 at (  34,   1,   1)
       Min divergence: -0.19E+01 at (  33,   1,  33)
       Max div. error:  0.11E-07 at (  64,   1,  12)
       Max VN number:   0.31E+00 at (  34,   1,  34)
       Mesh   12
       Max CFL number:  0.46E+00 at (  64,   1,  36)
       Max divergence:  0.38E+00 at (  33,   1,  33)
       Min divergence: -0.66E-03 at (   1,   1,   4)
       Max div. error:  0.11E-07 at (  64,   1,   6)
       Max VN number:   0.11E+00 at (   1,   1,  34)
       Mesh   13
       Max CFL number:  0.46E+00 at (  36,   1,  64)
       Max divergence:  0.38E+00 at (  33,   1,  33)
       Min divergence: -0.66E-03 at (   4,   1,   1)
       Max div. error:  0.11E-07 at (  39,   1,  64)
       Max VN number:   0.11E+00 at (  34,   1,   1)
       Mesh   14
       Max CFL number:  0.48E+00 at (  24,   1,  25)
       Max divergence:  0.23E+00 at (   1,   1,  34)
       Min divergence: -0.19E+01 at (  33,   1,  33)
       Max div. error:  0.11E-07 at (  17,   1,  64)
       Max VN number:   0.31E+00 at (  34,   1,  34)
       Mesh   15
       Max CFL number:  0.46E+00 at (  36,   1,  64)
       Max divergence:  0.38E+00 at (  33,   1,  33)
       Min divergence: -0.66E-03 at (   1,   1,   4)
       Max div. error:  0.11E-07 at (   7,   1,  64)
       Max VN number:   0.11E+00 at (  34,   1,   1)
       Mesh   16
       Max CFL number:  0.48E+00 at (  25,   1,  24)
       Max divergence:  0.23E+00 at (   1,   1,  34)
       Min divergence: -0.19E+01 at (  33,   1,  33)
       Max div. error:  0.11E-07 at (  64,   1,  46)
       Max VN number:   0.31E+00 at (  34,   1,  34)
 
       Time Step       8   February 19, 2020  19:29:48
       Step Size:    0.346E-02 s, Total Time:       0.03 s
       Pressure Iterations:      1
       Maximum Velocity Error:  0.56E-16 on Mesh   1 at (  65   1  21)
       Maximum Pressure Error:  0.15E+01 on Mesh   9 at (  30   1  33)
       ScaRC: iterations   150, residual  0.89E-08, convergence rate   0.84E+00
       ---------------------------------------------------------------
       Mesh    1
       Max CFL number:  0.49E+00 at (  25,   1,  25)
       Max divergence:  0.26E+00 at (  34,   1,   1)
       Min divergence: -0.21E+01 at (  33,   1,  33)
       Max div. error:  0.12E-07 at (   1,   1,  43)
       Max VN number:   0.31E+00 at (  34,   1,  34)
       Mesh    2
       Max CFL number:  0.47E+00 at (  36,   1,  64)
       Max divergence:  0.44E+00 at (  33,   1,  33)
       Min divergence: -0.12E-02 at (   4,   1,   1)
       Max div. error:  0.12E-07 at (  47,   1,   1)
       Max VN number:   0.11E+00 at (  34,   1,   1)
       Mesh    3
       Max CFL number:  0.49E+00 at (  25,   1,  25)
       Max divergence:  0.26E+00 at (   1,   1,  34)
       Min divergence: -0.21E+01 at (  33,   1,  33)
       Max div. error:  0.12E-07 at (  60,   1,   1)
       Max VN number:   0.31E+00 at (  34,   1,  34)
       Mesh    4
       Max CFL number:  0.47E+00 at (  36,   1,  64)
       Max divergence:  0.44E+00 at (  33,   1,  33)
       Min divergence: -0.12E-02 at (   1,   1,   4)
       Max div. error:  0.12E-07 at (  64,   1,  39)
       Max VN number:   0.11E+00 at (  34,   1,   1)
       Mesh    5
       Max CFL number:  0.47E+00 at (  64,   1,  36)
       Max divergence:  0.44E+00 at (  33,   1,  33)
       Min divergence: -0.12E-02 at (   1,   1,   4)
       Max div. error:  0.12E-07 at (   1,   1,  47)
       Max VN number:   0.11E+00 at (   1,   1,  34)
       Mesh    6
       Max CFL number:  0.49E+00 at (  25,   1,  25)
       Max divergence:  0.26E+00 at (  34,   1,   1)
       Min divergence: -0.21E+01 at (  33,   1,  33)
       Max div. error:  0.12E-07 at (  50,   1,  64)
       Max VN number:   0.31E+00 at (  34,   1,  34)
       Mesh    7
       Max CFL number:  0.47E+00 at (  64,   1,  36)
       Max divergence:  0.44E+00 at (  33,   1,  33)
       Min divergence: -0.12E-02 at (   4,   1,   1)
       Max div. error:  0.12E-07 at (   1,   1,  64)
       Max VN number:   0.11E+00 at (  34,   1,   1)
       Mesh    8
       Max CFL number:  0.49E+00 at (  25,   1,  25)
       Max divergence:  0.26E+00 at (  34,   1,   1)
       Min divergence: -0.21E+01 at (  33,   1,  33)
       Max div. error:  0.12E-07 at (  64,   1,  17)
       Max VN number:   0.31E+00 at (  34,   1,  34)
       Mesh    9
       Max CFL number:  0.49E+00 at (  25,   1,  25)
       Max divergence:  0.26E+00 at (  34,   1,   1)
       Min divergence: -0.21E+01 at (  33,   1,  33)
       Max div. error:  0.12E-07 at (   1,   1,  60)
       Max VN number:   0.31E+00 at (  34,   1,  34)
       Mesh   10
       Max CFL number:  0.47E+00 at (  64,   1,  36)
       Max divergence:  0.44E+00 at (  33,   1,  33)
       Min divergence: -0.12E-02 at (   4,   1,   1)
       Max div. error:  0.12E-07 at (  64,   1,   1)
       Max VN number:   0.11E+00 at (   1,   1,  34)
       Mesh   11
       Max CFL number:  0.49E+00 at (  25,   1,  25)
       Max divergence:  0.26E+00 at (  34,   1,   1)
       Min divergence: -0.21E+01 at (  33,   1,  33)
       Max div. error:  0.12E-07 at (  64,   1,  13)
       Max VN number:   0.31E+00 at (  34,   1,  34)
       Mesh   12
       Max CFL number:  0.47E+00 at (  36,   1,  64)
       Max divergence:  0.44E+00 at (  33,   1,  33)
       Min divergence: -0.12E-02 at (   4,   1,   1)
       Max div. error:  0.12E-07 at (  64,   1,   7)
       Max VN number:   0.11E+00 at (   1,   1,  34)
       Mesh   13
       Max CFL number:  0.47E+00 at (  64,   1,  36)
       Max divergence:  0.44E+00 at (  33,   1,  33)
       Min divergence: -0.12E-02 at (   4,   1,   1)
       Max div. error:  0.12E-07 at (  39,   1,  64)
       Max VN number:   0.11E+00 at (   1,   1,  34)
       Mesh   14
       Max CFL number:  0.49E+00 at (  25,   1,  25)
       Max divergence:  0.26E+00 at (   1,   1,  34)
       Min divergence: -0.21E+01 at (  33,   1,  33)
       Max div. error:  0.12E-07 at (  17,   1,  64)
       Max VN number:   0.31E+00 at (  34,   1,  34)
       Mesh   15
       Max CFL number:  0.47E+00 at (  64,   1,  36)
       Max divergence:  0.44E+00 at (  33,   1,  33)
       Min divergence: -0.12E-02 at (   4,   1,   1)
       Max div. error:  0.12E-07 at (   7,   1,  64)
       Max VN number:   0.11E+00 at (  34,   1,   1)
       Mesh   16
       Max CFL number:  0.49E+00 at (  25,   1,  25)
       Max divergence:  0.26E+00 at (   1,   1,  34)
       Min divergence: -0.21E+01 at (  33,   1,  33)
       Max div. error:  0.12E-07 at (  64,   1,  46)
       Max VN number:   0.31E+00 at (  34,   1,  34)
 
       Time Step       9   February 19, 2020  19:29:48
       Step Size:    0.346E-02 s, Total Time:       0.03 s
       Pressure Iterations:      1
       Maximum Velocity Error:  0.56E-16 on Mesh   1 at (   0   1   2)
       Maximum Pressure Error:  0.16E+01 on Mesh   9 at (  33   1  33)
       ScaRC: iterations   150, residual  0.99E-08, convergence rate   0.84E+00
       ---------------------------------------------------------------
       Mesh    1
       Max CFL number:  0.50E+00 at (  25,   1,  25)
       Max divergence:  0.30E+00 at (   1,   1,  34)
       Min divergence: -0.23E+01 at (  33,   1,  33)
       Max div. error:  0.13E-07 at (   1,   1,  43)
       Max VN number:   0.31E+00 at (  34,   1,  34)
       Mesh    2
       Max CFL number:  0.47E+00 at (  37,   1,  64)
       Max divergence:  0.49E+00 at (  33,   1,  33)
       Min divergence: -0.19E-02 at (   1,   1,  64)
       Max div. error:  0.13E-07 at (  47,   1,   1)
       Max VN number:   0.11E+00 at (  34,   1,   1)
       Mesh    3
       Max CFL number:  0.50E+00 at (  25,   1,  25)
       Max divergence:  0.30E+00 at (   1,   1,  34)
       Min divergence: -0.23E+01 at (  33,   1,  33)
       Max div. error:  0.13E-07 at (  60,   1,   1)
       Max VN number:   0.31E+00 at (  34,   1,  34)
       Mesh    4
       Max CFL number:  0.47E+00 at (  37,   1,  64)
       Max divergence:  0.49E+00 at (  33,   1,  33)
       Min divergence: -0.19E-02 at (   1,   1,  64)
       Max div. error:  0.13E-07 at (  64,   1,  18)
       Max VN number:   0.11E+00 at (  34,   1,   1)
       Mesh    5
       Max CFL number:  0.47E+00 at (  64,   1,  37)
       Max divergence:  0.49E+00 at (  33,   1,  33)
       Min divergence: -0.19E-02 at (  64,   1,   1)
       Max div. error:  0.13E-07 at (   1,   1,  47)
       Max VN number:   0.11E+00 at (   1,   1,  34)
       Mesh    6
       Max CFL number:  0.50E+00 at (  25,   1,  25)
       Max divergence:  0.30E+00 at (   1,   1,  34)
       Min divergence: -0.23E+01 at (  33,   1,  33)
       Max div. error:  0.13E-07 at (  64,   1,  46)
       Max VN number:   0.31E+00 at (  34,   1,  34)
       Mesh    7
       Max CFL number:  0.47E+00 at (  64,   1,  37)
       Max divergence:  0.49E+00 at (  33,   1,  33)
       Min divergence: -0.19E-02 at (   1,   1,  64)
       Max div. error:  0.13E-07 at (   1,   1,  64)
       Max VN number:   0.11E+00 at (  34,   1,   1)
       Mesh    8
       Max CFL number:  0.50E+00 at (  25,   1,  25)
       Max divergence:  0.30E+00 at (  34,   1,   1)
       Min divergence: -0.23E+01 at (  33,   1,  33)
       Max div. error:  0.13E-07 at (  64,   1,  17)
       Max VN number:   0.31E+00 at (  34,   1,  34)
       Mesh    9
       Max CFL number:  0.50E+00 at (  25,   1,  25)
       Max divergence:  0.30E+00 at (  34,   1,   1)
       Min divergence: -0.23E+01 at (  33,   1,  33)
       Max div. error:  0.13E-07 at (   1,   1,  60)
       Max VN number:   0.31E+00 at (  34,   1,  34)
       Mesh   10
       Max CFL number:  0.47E+00 at (  37,   1,  64)
       Max divergence:  0.49E+00 at (  33,   1,  33)
       Min divergence: -0.19E-02 at (  64,   1,   1)
       Max div. error:  0.13E-07 at (  64,   1,   1)
       Max VN number:   0.11E+00 at (   1,   1,  34)
       Mesh   11
       Max CFL number:  0.50E+00 at (  25,   1,  25)
       Max divergence:  0.30E+00 at (  34,   1,   1)
       Min divergence: -0.23E+01 at (  33,   1,  33)
       Max div. error:  0.13E-07 at (  64,   1,  64)
       Max VN number:   0.31E+00 at (  34,   1,  34)
       Mesh   12
       Max CFL number:  0.47E+00 at (  37,   1,  64)
       Max divergence:  0.49E+00 at (  33,   1,  33)
       Min divergence: -0.19E-02 at (   1,   1,  64)
       Max div. error:  0.13E-07 at (  64,   1,  19)
       Max VN number:   0.11E+00 at (   1,   1,  34)
       Mesh   13
       Max CFL number:  0.47E+00 at (  64,   1,  37)
       Max divergence:  0.49E+00 at (  33,   1,  33)
       Min divergence: -0.19E-02 at (  64,   1,   1)
       Max div. error:  0.13E-07 at (  18,   1,  64)
       Max VN number:   0.11E+00 at (   1,   1,  34)
       Mesh   14
       Max CFL number:  0.50E+00 at (  25,   1,  25)
       Max divergence:  0.30E+00 at (   1,   1,  34)
       Min divergence: -0.23E+01 at (  33,   1,  33)
       Max div. error:  0.13E-07 at (  17,   1,  64)
       Max VN number:   0.31E+00 at (  34,   1,  34)
       Mesh   15
       Max CFL number:  0.47E+00 at (  64,   1,  37)
       Max divergence:  0.49E+00 at (  33,   1,  33)
       Min divergence: -0.19E-02 at (  64,   1,   1)
       Max div. error:  0.13E-07 at (   7,   1,  64)
       Max VN number:   0.11E+00 at (  34,   1,   1)
       Mesh   16
       Max CFL number:  0.50E+00 at (  25,   1,  25)
       Max divergence:  0.30E+00 at (  34,   1,   1)
       Min divergence: -0.23E+01 at (  33,   1,  33)
       Max div. error:  0.13E-07 at (  64,   1,  46)
       Max VN number:   0.31E+00 at (  34,   1,  34)
 
       Time Step      10   February 19, 2020  19:29:49
       Step Size:    0.310E-02 s, Total Time:       0.03 s
       Pressure Iterations:      1
       Maximum Velocity Error:  0.56E-16 on Mesh   1 at (  65   1  22)
       Maximum Pressure Error:  0.15E+01 on Mesh   1 at (  33   1  33)
       ScaRC: iterations   150, residual  0.97E-08, convergence rate   0.84E+00
       ---------------------------------------------------------------
       Mesh    1
       Max CFL number:  0.45E+00 at (  25,   1,  25)
       Max divergence:  0.33E+00 at (  35,   1,   1)
       Min divergence: -0.25E+01 at (  34,   1,  34)
       Max div. error:  0.14E-07 at (   1,   1,  43)
       Max VN number:   0.27E+00 at (  35,   1,  35)
       Mesh    2
       Max CFL number:  0.42E+00 at (  37,   1,  64)
       Max divergence:  0.54E+00 at (  33,   1,  33)
       Min divergence: -0.27E-02 at (   1,   1,  64)
       Max div. error:  0.14E-07 at (  10,   1,   1)
       Max VN number:   0.10E+00 at (  35,   1,   1)
       Mesh    3
       Max CFL number:  0.45E+00 at (  25,   1,  25)
       Max divergence:  0.33E+00 at (   1,   1,  35)
       Min divergence: -0.25E+01 at (  34,   1,  34)
       Max div. error:  0.14E-07 at (  60,   1,   1)
       Max VN number:   0.27E+00 at (  35,   1,  35)
       Mesh    4
       Max CFL number:  0.42E+00 at (  37,   1,  64)
       Max divergence:  0.54E+00 at (  33,   1,  33)
       Min divergence: -0.27E-02 at (  64,   1,   1)
       Max div. error:  0.14E-07 at (  64,   1,  39)
       Max VN number:   0.10E+00 at (  35,   1,   1)
       Mesh    5
       Max CFL number:  0.42E+00 at (  64,   1,  37)
       Max divergence:  0.54E+00 at (  33,   1,  33)
       Min divergence: -0.27E-02 at (  64,   1,   1)
       Max div. error:  0.14E-07 at (   1,   1,  10)
       Max VN number:   0.10E+00 at (   1,   1,  35)
       Mesh    6
       Max CFL number:  0.45E+00 at (  25,   1,  25)
       Max divergence:  0.33E+00 at (   1,   1,  35)
       Min divergence: -0.25E+01 at (  34,   1,  34)
       Max div. error:  0.14E-07 at (  64,   1,  45)
       Max VN number:   0.27E+00 at (  35,   1,  35)
       Mesh    7
       Max CFL number:  0.42E+00 at (  64,   1,  37)
       Max divergence:  0.54E+00 at (  33,   1,  33)
       Min divergence: -0.27E-02 at (   1,   1,  64)
       Max div. error:  0.14E-07 at (   1,   1,  64)
       Max VN number:   0.10E+00 at (  35,   1,   1)
       Mesh    8
       Max CFL number:  0.45E+00 at (  25,   1,  25)
       Max divergence:  0.33E+00 at (  35,   1,   1)
       Min divergence: -0.25E+01 at (  34,   1,  34)
       Max div. error:  0.14E-07 at (  64,   1,  55)
       Max VN number:   0.27E+00 at (  35,   1,  35)
       Mesh    9
       Max CFL number:  0.45E+00 at (  25,   1,  25)
       Max divergence:  0.33E+00 at (  35,   1,   1)
       Min divergence: -0.25E+01 at (  34,   1,  34)
       Max div. error:  0.14E-07 at (   1,   1,  60)
       Max VN number:   0.27E+00 at (  35,   1,  35)
       Mesh   10
       Max CFL number:  0.42E+00 at (  37,   1,  64)
       Max divergence:  0.54E+00 at (  33,   1,  33)
       Min divergence: -0.27E-02 at (  64,   1,   1)
       Max div. error:  0.14E-07 at (  64,   1,   1)
       Max VN number:   0.10E+00 at (   1,   1,  35)
       Mesh   11
       Max CFL number:  0.45E+00 at (  25,   1,  25)
       Max divergence:  0.33E+00 at (  35,   1,   1)
       Min divergence: -0.25E+01 at (  34,   1,  34)
       Max div. error:  0.14E-07 at (  64,   1,  64)
       Max VN number:   0.27E+00 at (  35,   1,  35)
       Mesh   12
       Max CFL number:  0.42E+00 at (  37,   1,  64)
       Max divergence:  0.54E+00 at (  33,   1,  33)
       Min divergence: -0.27E-02 at (   1,   1,  64)
       Max div. error:  0.14E-07 at (  64,   1,   6)
       Max VN number:   0.10E+00 at (   1,   1,  35)
       Mesh   13
       Max CFL number:  0.42E+00 at (  64,   1,  37)
       Max divergence:  0.54E+00 at (  33,   1,  33)
       Min divergence: -0.27E-02 at (   1,   1,  64)
       Max div. error:  0.14E-07 at (  39,   1,  64)
       Max VN number:   0.10E+00 at (   1,   1,  35)
       Mesh   14
       Max CFL number:  0.45E+00 at (  25,   1,  25)
       Max divergence:  0.33E+00 at (   1,   1,  35)
       Min divergence: -0.25E+01 at (  34,   1,  34)
       Max div. error:  0.14E-07 at (  56,   1,  64)
       Max VN number:   0.27E+00 at (  35,   1,  35)
       Mesh   15
       Max CFL number:  0.42E+00 at (  64,   1,  37)
       Max divergence:  0.54E+00 at (  33,   1,  33)
       Min divergence: -0.27E-02 at (  64,   1,   1)
       Max div. error:  0.14E-07 at (   6,   1,  64)
       Max VN number:   0.10E+00 at (  35,   1,   1)
       Mesh   16
       Max CFL number:  0.45E+00 at (  25,   1,  25)
       Max divergence:  0.33E+00 at (   1,   1,  35)
       Min divergence: -0.25E+01 at (  34,   1,  34)
       Max div. error:  0.14E-07 at (  64,   1,  46)
       Max VN number:   0.27E+00 at (  35,   1,  35)
 
       Time Step      20   February 19, 2020  19:29:54
       Step Size:    0.310E-02 s, Total Time:       0.07 s
       Pressure Iterations:      1
       Maximum Velocity Error:  0.11E-15 on Mesh   1 at (  51   1   0)
       Maximum Pressure Error:  0.18E+01 on Mesh   1 at (  35   1  35)
       ScaRC: iterations   152, residual  0.72E-08, convergence rate   0.83E+00
       ---------------------------------------------------------------
       Mesh    1
       Max CFL number:  0.49E+00 at (  26,   1,  27)
       Max divergence:  0.67E+00 at (  37,   1,   1)
       Min divergence: -0.43E+01 at (  36,   1,  36)
       Max div. error:  0.18E-07 at (  40,   1,   1)
       Max VN number:   0.24E+00 at (  37,   1,  37)
       Mesh    2
       Max CFL number:  0.45E+00 at (  64,   1,  42)
       Max divergence:  0.10E+01 at (  35,   1,  35)
       Min divergence: -0.29E-01 at (  11,   1,   1)
       Max div. error:  0.18E-07 at (  21,   1,   1)
       Max VN number:   0.11E+00 at (  37,   1,   1)
       Mesh    3
       Max CFL number:  0.49E+00 at (  27,   1,  26)
       Max divergence:  0.67E+00 at (  37,   1,   1)
       Min divergence: -0.43E+01 at (  36,   1,  36)
       Max div. error:  0.18E-07 at (  58,   1,   1)
       Max VN number:   0.24E+00 at (  37,   1,  37)
       Mesh    4
       Max CFL number:  0.45E+00 at (  64,   1,  42)
       Max divergence:  0.10E+01 at (  35,   1,  35)
       Min divergence: -0.29E-01 at (  11,   1,   1)
       Max div. error:  0.18E-07 at (  64,   1,  19)
       Max VN number:   0.11E+00 at (  37,   1,   1)
       Mesh    5
       Max CFL number:  0.45E+00 at (  42,   1,  64)
       Max divergence:  0.10E+01 at (  35,   1,  35)
       Min divergence: -0.29E-01 at (   1,   1,  11)
       Max div. error:  0.18E-07 at (   1,   1,  21)
       Max VN number:   0.11E+00 at (   1,   1,  37)
       Mesh    6
       Max CFL number:  0.49E+00 at (  27,   1,  26)
       Max divergence:  0.67E+00 at (  37,   1,   1)
       Min divergence: -0.43E+01 at (  36,   1,  36)
       Max div. error:  0.18E-07 at (  45,   1,  64)
       Max VN number:   0.24E+00 at (  37,   1,  37)
       Mesh    7
       Max CFL number:  0.45E+00 at (  42,   1,  64)
       Max divergence:  0.10E+01 at (  35,   1,  35)
       Min divergence: -0.29E-01 at (  11,   1,   1)
       Max div. error:  0.18E-07 at (   1,   1,  64)
       Max VN number:   0.11E+00 at (   1,   1,  37)
       Mesh    8
       Max CFL number:  0.49E+00 at (  26,   1,  27)
       Max divergence:  0.67E+00 at (  37,   1,   1)
       Min divergence: -0.43E+01 at (  36,   1,  36)
       Max div. error:  0.18E-07 at (  64,   1,  61)
       Max VN number:   0.24E+00 at (  37,   1,  37)
       Mesh    9
       Max CFL number:  0.49E+00 at (  27,   1,  26)
       Max divergence:  0.67E+00 at (   1,   1,  37)
       Min divergence: -0.43E+01 at (  36,   1,  36)
       Max div. error:  0.18E-07 at (   1,   1,  58)
       Max VN number:   0.24E+00 at (  37,   1,  37)
       Mesh   10
       Max CFL number:  0.45E+00 at (  42,   1,  64)
       Max divergence:  0.10E+01 at (  35,   1,  35)
       Min divergence: -0.29E-01 at (   1,   1,  11)
       Max div. error:  0.18E-07 at (  64,   1,   1)
       Max VN number:   0.11E+00 at (   1,   1,  37)
       Mesh   11
       Max CFL number:  0.49E+00 at (  27,   1,  26)
       Max divergence:  0.67E+00 at (   1,   1,  37)
       Min divergence: -0.43E+01 at (  36,   1,  36)
       Max div. error:  0.18E-07 at (  64,   1,  64)
       Max VN number:   0.24E+00 at (  37,   1,  37)
       Mesh   12
       Max CFL number:  0.45E+00 at (  64,   1,  42)
       Max divergence:  0.10E+01 at (  35,   1,  35)
       Min divergence: -0.29E-01 at (   1,   1,  11)
       Max div. error:  0.18E-07 at (  64,   1,  26)
       Max VN number:   0.11E+00 at (   1,   1,  37)
       Mesh   13
       Max CFL number:  0.45E+00 at (  42,   1,  64)
       Max divergence:  0.10E+01 at (  35,   1,  35)
       Min divergence: -0.29E-01 at (   1,   1,  11)
       Max div. error:  0.18E-07 at (  19,   1,  64)
       Max VN number:   0.11E+00 at (   1,   1,  37)
       Mesh   14
       Max CFL number:  0.49E+00 at (  26,   1,  27)
       Max divergence:  0.67E+00 at (  37,   1,   1)
       Min divergence: -0.43E+01 at (  36,   1,  36)
       Max div. error:  0.18E-07 at (  61,   1,  64)
       Max VN number:   0.24E+00 at (  37,   1,  37)
       Mesh   15
       Max CFL number:  0.45E+00 at (  64,   1,  42)
       Max divergence:  0.10E+01 at (  35,   1,  35)
       Min divergence: -0.29E-01 at (  11,   1,   1)
       Max div. error:  0.18E-07 at (  26,   1,  64)
       Max VN number:   0.11E+00 at (  37,   1,   1)
       Mesh   16
       Max CFL number:  0.49E+00 at (  27,   1,  26)
       Max divergence:  0.67E+00 at (   1,   1,  37)
       Min divergence: -0.43E+01 at (  36,   1,  36)
       Max div. error:  0.18E-07 at (  47,   1,  64)
       Max VN number:   0.24E+00 at (  37,   1,  37)
 
       Time Step      30   February 19, 2020  19:29:59
       Step Size:    0.278E-02 s, Total Time:       0.09 s
       Pressure Iterations:      1
       Maximum Velocity Error:  0.11E-15 on Mesh   1 at (   0   1  33)
       Maximum Pressure Error:  0.13E+01 on Mesh  14 at (  37   1  37)
       ScaRC: iterations   153, residual  0.61E-08, convergence rate   0.83E+00
       ---------------------------------------------------------------
       Mesh    1
       Max CFL number:  0.46E+00 at (  27,   1,  28)
       Max divergence:  0.10E+01 at (   1,   1,  39)
       Min divergence: -0.52E+01 at (  38,   1,  38)
       Max div. error:  0.15E-07 at (   1,   1,  26)
       Max VN number:   0.19E+00 at (  38,   1,  38)
       Mesh    2
       Max CFL number:  0.42E+00 at (  64,   1,  45)
       Max divergence:  0.15E+01 at (  37,   1,  37)
       Min divergence: -0.12E+00 at (  60,   1,   1)
       Max div. error:  0.15E-07 at (  62,   1,   1)
       Max VN number:   0.10E+00 at (  38,   1,   1)
       Mesh    3
       Max CFL number:  0.46E+00 at (  27,   1,  28)
       Max divergence:  0.10E+01 at (   1,   1,  39)
       Min divergence: -0.52E+01 at (  38,   1,  38)
       Max div. error:  0.15E-07 at (  24,   1,   1)
       Max VN number:   0.19E+00 at (  38,   1,  38)
       Mesh    4
       Max CFL number:  0.42E+00 at (  45,   1,  64)
       Max divergence:  0.15E+01 at (  37,   1,  37)
       Min divergence: -0.12E+00 at (   1,   1,  60)
       Max div. error:  0.15E-07 at (  46,   1,   1)
       Max VN number:   0.10E+00 at (  38,   1,   1)
       Mesh    5
       Max CFL number:  0.42E+00 at (  45,   1,  64)
       Max divergence:  0.15E+01 at (  37,   1,  37)
       Min divergence: -0.12E+00 at (   1,   1,  60)
       Max div. error:  0.15E-07 at (   1,   1,  62)
       Max VN number:   0.10E+00 at (   1,   1,  38)
       Mesh    6
       Max CFL number:  0.46E+00 at (  27,   1,  28)
       Max divergence:  0.10E+01 at (  39,   1,   1)
       Min divergence: -0.52E+01 at (  38,   1,  38)
       Max div. error:  0.15E-07 at (  33,   1,   1)
       Max VN number:   0.19E+00 at (  38,   1,  38)
       Mesh    7
       Max CFL number:  0.42E+00 at (  45,   1,  64)
       Max divergence:  0.15E+01 at (  37,   1,  37)
       Min divergence: -0.12E+00 at (  60,   1,   1)
       Max div. error:  0.15E-07 at (   1,   1,  44)
       Max VN number:   0.10E+00 at (  38,   1,   1)
       Mesh    8
       Max CFL number:  0.46E+00 at (  27,   1,  28)
       Max divergence:  0.10E+01 at (   1,   1,  39)
       Min divergence: -0.52E+01 at (  38,   1,  38)
       Max div. error:  0.15E-07 at (  64,   1,  22)
       Max VN number:   0.19E+00 at (  38,   1,  38)
       Mesh    9
       Max CFL number:  0.46E+00 at (  28,   1,  27)
       Max divergence:  0.10E+01 at (   1,   1,  39)
       Min divergence: -0.52E+01 at (  38,   1,  38)
       Max div. error:  0.15E-07 at (   1,   1,  24)
       Max VN number:   0.19E+00 at (  38,   1,  38)
       Mesh   10
       Max CFL number:  0.42E+00 at (  64,   1,  45)
       Max divergence:  0.15E+01 at (  37,   1,  37)
       Min divergence: -0.12E+00 at (   1,   1,  60)
       Max div. error:  0.15E-07 at (  41,   1,   1)
       Max VN number:   0.10E+00 at (   1,   1,  38)
       Mesh   11
       Max CFL number:  0.46E+00 at (  28,   1,  27)
       Max divergence:  0.10E+01 at (  39,   1,   1)
       Min divergence: -0.52E+01 at (  38,   1,  38)
       Max div. error:  0.15E-07 at (   1,   1,  25)
       Max VN number:   0.19E+00 at (  38,   1,  38)
       Mesh   12
       Max CFL number:  0.42E+00 at (  64,   1,  45)
       Max divergence:  0.15E+01 at (  37,   1,  37)
       Min divergence: -0.12E+00 at (  60,   1,   1)
       Max div. error:  0.15E-07 at (  64,   1,  56)
       Max VN number:   0.10E+00 at (   1,   1,  38)
       Mesh   13
       Max CFL number:  0.42E+00 at (  64,   1,  45)
       Max divergence:  0.15E+01 at (  37,   1,  37)
       Min divergence: -0.12E+00 at (  60,   1,   1)
       Max div. error:  0.15E-07 at (   1,   1,  46)
       Max VN number:   0.10E+00 at (   1,   1,  38)
       Mesh   14
       Max CFL number:  0.46E+00 at (  27,   1,  28)
       Max divergence:  0.10E+01 at (  39,   1,   1)
       Min divergence: -0.52E+01 at (  38,   1,  38)
       Max div. error:  0.15E-07 at (  22,   1,  64)
       Max VN number:   0.19E+00 at (  38,   1,  38)
       Mesh   15
       Max CFL number:  0.42E+00 at (  45,   1,  64)
       Max divergence:  0.15E+01 at (  37,   1,  37)
       Min divergence: -0.12E+00 at (   1,   1,  60)
       Max div. error:  0.15E-07 at (  56,   1,  64)
       Max VN number:   0.10E+00 at (  38,   1,   1)
       Mesh   16
       Max CFL number:  0.46E+00 at (  28,   1,  27)
       Max divergence:  0.10E+01 at (   1,   1,  39)
       Min divergence: -0.52E+01 at (  38,   1,  38)
       Max div. error:  0.15E-07 at (  13,   1,  64)
       Max VN number:   0.19E+00 at (  38,   1,  38)
 
       Time Step      40   February 19, 2020  19:30:04
       Step Size:    0.278E-02 s, Total Time:       0.12 s
       Pressure Iterations:      1
       Maximum Velocity Error:  0.11E-15 on Mesh   1 at (   0   1  24)
       Maximum Pressure Error:  0.98E+00 on Mesh   1 at (  38   1  43)
       ScaRC: iterations   155, residual  0.82E-08, convergence rate   0.83E+00
       ---------------------------------------------------------------
       Mesh    1
       Max CFL number:  0.48E+00 at (  29,   1,  28)
       Max divergence:  0.13E+01 at (  40,   1,   1)
       Min divergence: -0.56E+01 at (  40,   1,  40)
       Max VN number:   0.16E+00 at (  40,   1,  40)
       Mesh    2
       Max CFL number:  0.43E+00 at (  49,   1,  64)
       Max divergence:  0.20E+01 at (  39,   1,  39)
       Min divergence: -0.38E+00 at (  53,   1,   1)
       Max VN number:   0.10E+00 at (  40,   1,   1)
       Mesh    3
       Max CFL number:  0.48E+00 at (  28,   1,  29)
       Max divergence:  0.13E+01 at (   1,   1,  40)
       Min divergence: -0.56E+01 at (  40,   1,  40)
       Max VN number:   0.16E+00 at (  40,   1,  40)
       Mesh    4
       Max CFL number:  0.43E+00 at (  64,   1,  49)
       Max divergence:  0.20E+01 at (  39,   1,  39)
       Min divergence: -0.38E+00 at (  53,   1,   1)
       Max VN number:   0.10E+00 at (   1,   1,  40)
       Mesh    5
       Max CFL number:  0.43E+00 at (  64,   1,  49)
       Max divergence:  0.20E+01 at (  39,   1,  39)
       Min divergence: -0.38E+00 at (   1,   1,  53)
       Max VN number:   0.10E+00 at (   1,   1,  40)
       Mesh    6
       Max CFL number:  0.48E+00 at (  28,   1,  29)
       Max divergence:  0.13E+01 at (   1,   1,  40)
       Min divergence: -0.56E+01 at (  40,   1,  40)
       Max VN number:   0.16E+00 at (  40,   1,  40)
       Mesh    7
       Max CFL number:  0.43E+00 at (  64,   1,  49)
       Max divergence:  0.20E+01 at (  39,   1,  39)
       Min divergence: -0.38E+00 at (   1,   1,  53)
       Max VN number:   0.10E+00 at (   1,   1,  40)
       Mesh    8
       Max CFL number:  0.48E+00 at (  28,   1,  29)
       Max divergence:  0.13E+01 at (   1,   1,  40)
       Min divergence: -0.56E+01 at (  40,   1,  40)
       Max VN number:   0.16E+00 at (  40,   1,  40)
       Mesh    9
       Max CFL number:  0.48E+00 at (  29,   1,  28)
       Max divergence:  0.13E+01 at (  40,   1,   1)
       Min divergence: -0.56E+01 at (  40,   1,  40)
       Max VN number:   0.16E+00 at (  40,   1,  40)
       Mesh   10
       Max CFL number:  0.43E+00 at (  49,   1,  64)
       Max divergence:  0.20E+01 at (  39,   1,  39)
       Min divergence: -0.38E+00 at (  53,   1,   1)
       Max VN number:   0.10E+00 at (  40,   1,   1)
       Mesh   11
       Max CFL number:  0.48E+00 at (  28,   1,  29)
       Max divergence:  0.13E+01 at (   1,   1,  40)
       Min divergence: -0.56E+01 at (  40,   1,  40)
       Max VN number:   0.16E+00 at (  40,   1,  40)
       Mesh   12
       Max CFL number:  0.43E+00 at (  49,   1,  64)
       Max divergence:  0.20E+01 at (  39,   1,  39)
       Min divergence: -0.38E+00 at (  53,   1,   1)
       Max VN number:   0.10E+00 at (  40,   1,   1)
       Mesh   13
       Max CFL number:  0.43E+00 at (  49,   1,  64)
       Max divergence:  0.20E+01 at (  39,   1,  39)
       Min divergence: -0.38E+00 at (   1,   1,  53)
       Max VN number:   0.10E+00 at (  40,   1,   1)
       Mesh   14
       Max CFL number:  0.48E+00 at (  28,   1,  29)
       Max divergence:  0.13E+01 at (  40,   1,   1)
       Min divergence: -0.56E+01 at (  40,   1,  40)
       Max VN number:   0.16E+00 at (  40,   1,  40)
       Mesh   15
       Max CFL number:  0.43E+00 at (  49,   1,  64)
       Max divergence:  0.20E+01 at (  39,   1,  39)
       Min divergence: -0.38E+00 at (  53,   1,   1)
       Max VN number:   0.10E+00 at (   1,   1,  40)
       Mesh   16
       Max CFL number:  0.48E+00 at (  28,   1,  29)
       Max divergence:  0.13E+01 at (  40,   1,   1)
       Min divergence: -0.56E+01 at (  40,   1,  40)
       Max VN number:   0.16E+00 at (  40,   1,  40)
 
       Time Step      50   February 19, 2020  19:30:09
       Step Size:    0.278E-02 s, Total Time:       0.15 s
       Pressure Iterations:      1
       Maximum Velocity Error:  0.11E-15 on Mesh   1 at (   0   1  25)
       Maximum Pressure Error:  0.72E+00 on Mesh   6 at (  45   1  45)
       ScaRC: iterations   156, residual  0.72E-08, convergence rate   0.83E+00
       ---------------------------------------------------------------
       Mesh    1
       Max CFL number:  0.49E+00 at (  29,   1,  30)
       Max divergence:  0.16E+01 at (   1,   1,  42)
       Min divergence: -0.56E+01 at (  42,   1,  42)
       Max VN number:   0.14E+00 at (  42,   1,  42)
       Mesh    2
       Max CFL number:  0.44E+00 at (  53,   1,  64)
       Max divergence:  0.24E+01 at (  42,   1,  42)
       Min divergence: -0.97E+00 at (   1,   1,  41)
       Max VN number:   0.10E+00 at (  42,   1,   1)
       Mesh    3
       Max CFL number:  0.49E+00 at (  29,   1,  30)
       Max divergence:  0.16E+01 at (  42,   1,   1)
       Min divergence: -0.56E+01 at (  42,   1,  42)
       Max VN number:   0.14E+00 at (  42,   1,  42)
       Mesh    4
       Max CFL number:  0.44E+00 at (  53,   1,  64)
       Max divergence:  0.24E+01 at (  42,   1,  42)
       Min divergence: -0.97E+00 at (   1,   1,  41)
       Max VN number:   0.10E+00 at (   1,   1,  42)
       Mesh    5
       Max CFL number:  0.44E+00 at (  64,   1,  53)
       Max divergence:  0.24E+01 at (  42,   1,  42)
       Min divergence: -0.97E+00 at (  41,   1,   1)
       Max VN number:   0.10E+00 at (   1,   1,  42)
       Mesh    6
       Max CFL number:  0.49E+00 at (  29,   1,  30)
       Max divergence:  0.16E+01 at (  42,   1,   1)
       Min divergence: -0.56E+01 at (  42,   1,  42)
       Max VN number:   0.14E+00 at (  42,   1,  42)
       Mesh    7
       Max CFL number:  0.44E+00 at (  64,   1,  53)
       Max divergence:  0.24E+01 at (  42,   1,  42)
       Min divergence: -0.97E+00 at (   1,   1,  41)
       Max VN number:   0.10E+00 at (  42,   1,   1)
       Mesh    8
       Max CFL number:  0.49E+00 at (  29,   1,  30)
       Max divergence:  0.16E+01 at (  42,   1,   1)
       Min divergence: -0.56E+01 at (  42,   1,  42)
       Max VN number:   0.14E+00 at (  42,   1,  42)
       Mesh    9
       Max CFL number:  0.49E+00 at (  30,   1,  29)
       Max divergence:  0.16E+01 at (   1,   1,  42)
       Min divergence: -0.56E+01 at (  42,   1,  42)
       Max VN number:   0.14E+00 at (  42,   1,  42)
       Mesh   10
       Max CFL number:  0.44E+00 at (  53,   1,  64)
       Max divergence:  0.24E+01 at (  42,   1,  42)
       Min divergence: -0.97E+00 at (   1,   1,  41)
       Max VN number:   0.10E+00 at (   1,   1,  42)
       Mesh   11
       Max CFL number:  0.49E+00 at (  29,   1,  30)
       Max divergence:  0.16E+01 at (   1,   1,  42)
       Min divergence: -0.56E+01 at (  42,   1,  42)
       Max VN number:   0.14E+00 at (  42,   1,  42)
       Mesh   12
       Max CFL number:  0.44E+00 at (  53,   1,  64)
       Max divergence:  0.24E+01 at (  42,   1,  42)
       Min divergence: -0.97E+00 at (   1,   1,  41)
       Max VN number:   0.10E+00 at (   1,   1,  42)
       Mesh   13
       Max CFL number:  0.44E+00 at (  64,   1,  53)
       Max divergence:  0.24E+01 at (  42,   1,  42)
       Min divergence: -0.97E+00 at (  41,   1,   1)
       Max VN number:   0.10E+00 at (  42,   1,   1)
       Mesh   14
       Max CFL number:  0.49E+00 at (  30,   1,  29)
       Max divergence:  0.16E+01 at (   1,   1,  42)
       Min divergence: -0.56E+01 at (  42,   1,  42)
       Max VN number:   0.14E+00 at (  42,   1,  42)
       Mesh   15
       Max CFL number:  0.44E+00 at (  64,   1,  53)
       Max divergence:  0.24E+01 at (  42,   1,  42)
       Min divergence: -0.97E+00 at (  41,   1,   1)
       Max VN number:   0.10E+00 at (  42,   1,   1)
       Mesh   16
       Max CFL number:  0.49E+00 at (  29,   1,  30)
       Max divergence:  0.16E+01 at (   1,   1,  42)
       Min divergence: -0.56E+01 at (  42,   1,  42)
       Max VN number:   0.14E+00 at (  42,   1,  42)
 
       Time Step      60   February 19, 2020  19:30:14
       Step Size:    0.278E-02 s, Total Time:       0.18 s
       Pressure Iterations:      1
       Maximum Velocity Error:  0.11E-15 on Mesh   1 at (   0   1  48)
       Maximum Pressure Error:  0.51E+00 on Mesh  11 at (  47   1  47)
       ScaRC: iterations   157, residual  0.70E-08, convergence rate   0.82E+00
       ---------------------------------------------------------------
       Mesh    1
       Max CFL number:  0.49E+00 at (  30,   1,  31)
       Max divergence:  0.20E+01 at (  44,   1,   1)
       Min divergence: -0.53E+01 at (  44,   1,  44)
       Max VN number:   0.12E+00 at (  44,   1,  44)
       Mesh    2
       Max CFL number:  0.46E+00 at (  64,   1,  56)
       Max divergence:  0.29E+01 at (  44,   1,  44)
       Min divergence: -0.17E+01 at (   1,   1,  44)
       Max VN number:   0.10E+00 at (  44,   1,   1)
       Mesh    3
       Max CFL number:  0.49E+00 at (  30,   1,  31)
       Max divergence:  0.20E+01 at (  44,   1,   1)
       Min divergence: -0.53E+01 at (  44,   1,  44)
       Max VN number:   0.12E+00 at (  44,   1,  44)
       Mesh    4
       Max CFL number:  0.46E+00 at (  56,   1,  64)
       Max divergence:  0.29E+01 at (  44,   1,  44)
       Min divergence: -0.17E+01 at (  44,   1,   1)
       Max VN number:   0.10E+00 at (  44,   1,   1)
       Mesh    5
       Max CFL number:  0.46E+00 at (  64,   1,  56)
       Max divergence:  0.29E+01 at (  44,   1,  44)
       Min divergence: -0.17E+01 at (  44,   1,   1)
       Max VN number:   0.10E+00 at (   1,   1,  44)
       Mesh    6
       Max CFL number:  0.49E+00 at (  31,   1,  30)
       Max divergence:  0.20E+01 at (   1,   1,  44)
       Min divergence: -0.53E+01 at (  44,   1,  44)
       Max VN number:   0.12E+00 at (  44,   1,  44)
       Mesh    7
       Max CFL number:  0.46E+00 at (  56,   1,  64)
       Max divergence:  0.29E+01 at (  44,   1,  44)
       Min divergence: -0.17E+01 at (   1,   1,  44)
       Max VN number:   0.10E+00 at (  44,   1,   1)
       Mesh    8
       Max CFL number:  0.49E+00 at (  31,   1,  30)
       Max divergence:  0.20E+01 at (  44,   1,   1)
       Min divergence: -0.53E+01 at (  44,   1,  44)
       Max VN number:   0.12E+00 at (  44,   1,  44)
       Mesh    9
       Max CFL number:  0.49E+00 at (  30,   1,  31)
       Max divergence:  0.20E+01 at (   1,   1,  44)
       Min divergence: -0.53E+01 at (  44,   1,  44)
       Max VN number:   0.12E+00 at (  44,   1,  44)
       Mesh   10
       Max CFL number:  0.46E+00 at (  56,   1,  64)
       Max divergence:  0.29E+01 at (  44,   1,  44)
       Min divergence: -0.17E+01 at (  44,   1,   1)
       Max VN number:   0.10E+00 at (   1,   1,  44)
       Mesh   11
       Max CFL number:  0.49E+00 at (  30,   1,  31)
       Max divergence:  0.20E+01 at (   1,   1,  44)
       Min divergence: -0.53E+01 at (  44,   1,  44)
       Max VN number:   0.12E+00 at (  44,   1,  44)
       Mesh   12
       Max CFL number:  0.46E+00 at (  56,   1,  64)
       Max divergence:  0.29E+01 at (  44,   1,  44)
       Min divergence: -0.17E+01 at (   1,   1,  44)
       Max VN number:   0.10E+00 at (   1,   1,  44)
       Mesh   13
       Max CFL number:  0.46E+00 at (  64,   1,  56)
       Max divergence:  0.29E+01 at (  44,   1,  44)
       Min divergence: -0.17E+01 at (   1,   1,  44)
       Max VN number:   0.10E+00 at (   1,   1,  44)
       Mesh   14
       Max CFL number:  0.49E+00 at (  30,   1,  31)
       Max divergence:  0.20E+01 at (   1,   1,  44)
       Min divergence: -0.53E+01 at (  44,   1,  44)
       Max VN number:   0.12E+00 at (  44,   1,  44)
       Mesh   15
       Max CFL number:  0.46E+00 at (  64,   1,  56)
       Max divergence:  0.29E+01 at (  44,   1,  44)
       Min divergence: -0.17E+01 at (   1,   1,  44)
       Max VN number:   0.10E+00 at (  44,   1,   1)
       Mesh   16
       Max CFL number:  0.49E+00 at (  30,   1,  31)
       Max divergence:  0.20E+01 at (   1,   1,  44)
       Min divergence: -0.53E+01 at (  44,   1,  44)
       Max VN number:   0.12E+00 at (  44,   1,  44)
 
       Time Step      70   February 19, 2020  19:30:19
       Step Size:    0.278E-02 s, Total Time:       0.21 s
       Pressure Iterations:      1
       Maximum Velocity Error:  0.11E-15 on Mesh   1 at (   0   1  25)
       Maximum Pressure Error:  0.35E+00 on Mesh  16 at (  49   1  49)
       ScaRC: iterations   158, residual  0.72E-08, convergence rate   0.82E+00
       ---------------------------------------------------------------
       Mesh    1
       Max CFL number:  0.49E+00 at (  31,   1,  32)
       Max divergence:  0.23E+01 at (   1,   1,  46)
       Min divergence: -0.49E+01 at (  46,   1,  46)
       Max VN number:   0.10E+00 at (  47,   1,  47)
       Mesh    2
       Max CFL number:  0.47E+00 at (  59,   1,  64)
       Max divergence:  0.34E+01 at (  46,   1,  46)
       Min divergence: -0.23E+01 at (  46,   1,   1)
       Max VN number:   0.96E-01 at (   1,   1,  46)
       Mesh    3
       Max CFL number:  0.49E+00 at (  32,   1,  31)
       Max divergence:  0.23E+01 at (   1,   1,  46)
       Min divergence: -0.49E+01 at (  46,   1,  46)
[...]
       Max divergence:  0.44E+01 at (  49,   1,  49)
       Min divergence: -0.29E+01 at (  49,   1,   1)
       Max VN number:   0.90E-01 at (  49,   1,  49)
       Mesh    3
       Max CFL number:  0.49E+00 at (   1,   1,  64)
       Max divergence:  0.30E+01 at (  49,   1,   1)
       Min divergence: -0.40E+01 at (  49,   1,  49)
       Max VN number:   0.88E-01 at (  49,   1,   1)
       Mesh    4
       Max CFL number:  0.49E+00 at (  64,   1,  64)
       Max divergence:  0.44E+01 at (  49,   1,  49)
       Min divergence: -0.29E+01 at (  49,   1,   1)
       Max VN number:   0.90E-01 at (  49,   1,  49)
       Mesh    5
       Max CFL number:  0.49E+00 at (  64,   1,  64)
       Max divergence:  0.44E+01 at (  49,   1,  49)
       Min divergence: -0.29E+01 at (   1,   1,  49)
       Max VN number:   0.90E-01 at (  49,   1,  49)
       Mesh    6
       Max CFL number:  0.49E+00 at (  64,   1,   1)
       Max divergence:  0.30E+01 at (  49,   1,   1)
       Min divergence: -0.40E+01 at (  49,   1,  49)
       Max VN number:   0.88E-01 at (   1,   1,  49)
       Mesh    7
       Max CFL number:  0.49E+00 at (  64,   1,  64)
       Max divergence:  0.44E+01 at (  49,   1,  49)
       Min divergence: -0.29E+01 at (  49,   1,   1)
       Max VN number:   0.90E-01 at (  49,   1,  49)
       Mesh    8
       Max CFL number:  0.49E+00 at (   1,   1,  64)
       Max divergence:  0.30E+01 at (   1,   1,  49)
       Min divergence: -0.40E+01 at (  49,   1,  49)
       Max VN number:   0.88E-01 at (  49,   1,   1)
       Mesh    9
       Max CFL number:  0.49E+00 at (  64,   1,   1)
       Max divergence:  0.30E+01 at (   1,   1,  49)
       Min divergence: -0.40E+01 at (  49,   1,  49)
       Max VN number:   0.88E-01 at (   1,   1,  49)
       Mesh   10
       Max CFL number:  0.49E+00 at (  64,   1,  64)
       Max divergence:  0.44E+01 at (  49,   1,  49)
       Min divergence: -0.29E+01 at (   1,   1,  49)
       Max VN number:   0.90E-01 at (  49,   1,  49)
       Mesh   11
       Max CFL number:  0.49E+00 at (  64,   1,   1)
       Max divergence:  0.30E+01 at (   1,   1,  49)
       Min divergence: -0.40E+01 at (  49,   1,  49)
       Max VN number:   0.88E-01 at (  49,   1,   1)
       Mesh   12
       Max CFL number:  0.49E+00 at (  64,   1,  64)
       Max divergence:  0.44E+01 at (  49,   1,  49)
       Min divergence: -0.29E+01 at (   1,   1,  49)
       Max VN number:   0.90E-01 at (  49,   1,  49)
       Mesh   13
       Max CFL number:  0.49E+00 at (  64,   1,  64)
       Max divergence:  0.44E+01 at (  49,   1,  49)
       Min divergence: -0.29E+01 at (   1,   1,  49)
       Max VN number:   0.90E-01 at (  49,   1,  49)
       Mesh   14
       Max CFL number:  0.49E+00 at (  64,   1,   1)
       Max divergence:  0.30E+01 at (  49,   1,   1)
       Min divergence: -0.40E+01 at (  49,   1,  49)
       Max VN number:   0.88E-01 at (  49,   1,   1)
       Mesh   15
       Max CFL number:  0.49E+00 at (  64,   1,  64)
       Max divergence:  0.44E+01 at (  49,   1,  49)
       Min divergence: -0.29E+01 at (   1,   1,  49)
       Max VN number:   0.90E-01 at (  49,   1,  49)
       Mesh   16
       Max CFL number:  0.49E+00 at (   1,   1,  64)
       Max divergence:  0.30E+01 at (   1,   1,  49)
       Min divergence: -0.40E+01 at (  49,   1,  49)
       Max VN number:   0.88E-01 at (  49,   1,   1)
 
       Time Step     100   February 19, 2020  19:30:35
       Step Size:    0.278E-02 s, Total Time:       0.29 s
       Pressure Iterations:      1
       Maximum Velocity Error:  0.11E-15 on Mesh   1 at (   0   1  35)
       Maximum Pressure Error:  0.19E+00 on Mesh  13 at (  49   1  49)
       ScaRC: iterations   158, residual  0.93E-08, convergence rate   0.83E+00
       ---------------------------------------------------------------
       Mesh    1
       Max CFL number:  0.49E+00 at (   2,   1,  64)
       Max divergence:  0.34E+01 at (  51,   1,   1)
       Min divergence: -0.35E+01 at (  51,   1,  51)
       Max VN number:   0.98E-01 at (  51,   1,   1)
       Mesh    2
       Max CFL number:  0.49E+00 at (   1,   1,   1)
       Max divergence:  0.48E+01 at (  51,   1,  51)
       Min divergence: -0.29E+01 at (  51,   1,   1)
       Max VN number:   0.10E+00 at (  51,   1,  51)
       Mesh    3
       Max CFL number:  0.49E+00 at (  64,   1,   2)
       Max divergence:  0.34E+01 at (   1,   1,  51)
       Min divergence: -0.35E+01 at (  51,   1,  51)
       Max VN number:   0.98E-01 at (   1,   1,  51)
       Mesh    4
       Max CFL number:  0.49E+00 at (   1,   1,   1)
       Max divergence:  0.48E+01 at (  51,   1,  51)
       Min divergence: -0.29E+01 at (  51,   1,   1)
       Max VN number:   0.10E+00 at (  51,   1,  51)
       Mesh    5
       Max CFL number:  0.49E+00 at (   1,   1,   1)
       Max divergence:  0.48E+01 at (  51,   1,  51)
       Min divergence: -0.29E+01 at (   1,   1,  51)
       Max VN number:   0.10E+00 at (  51,   1,  51)
       Mesh    6
       Max CFL number:  0.49E+00 at (  64,   1,   2)
       Max divergence:  0.34E+01 at (  51,   1,   1)
       Min divergence: -0.35E+01 at (  51,   1,  51)
       Max VN number:   0.98E-01 at (  51,   1,   1)
       Mesh    7
       Max CFL number:  0.49E+00 at (   1,   1,   1)
       Max divergence:  0.48E+01 at (  51,   1,  51)
       Min divergence: -0.29E+01 at (   1,   1,  51)
       Max VN number:   0.10E+00 at (  51,   1,  51)
       Mesh    8
       Max CFL number:  0.49E+00 at (   2,   1,  64)
       Max divergence:  0.34E+01 at (   1,   1,  51)
       Min divergence: -0.35E+01 at (  51,   1,  51)
       Max VN number:   0.98E-01 at (  51,   1,   1)
       Mesh    9
       Max CFL number:  0.49E+00 at (   2,   1,  64)
       Max divergence:  0.34E+01 at (  51,   1,   1)
       Min divergence: -0.35E+01 at (  51,   1,  51)
       Max VN number:   0.98E-01 at (  51,   1,   1)
       Mesh   10
       Max CFL number:  0.49E+00 at (   1,   1,   1)
       Max divergence:  0.48E+01 at (  51,   1,  51)
       Min divergence: -0.29E+01 at (  51,   1,   1)
       Max VN number:   0.10E+00 at (  51,   1,  51)
       Mesh   11
       Max CFL number:  0.49E+00 at (  64,   1,   2)
       Max divergence:  0.34E+01 at (   1,   1,  51)
       Min divergence: -0.35E+01 at (  51,   1,  51)
       Max VN number:   0.98E-01 at (   1,   1,  51)
       Mesh   12
       Max CFL number:  0.49E+00 at (   1,   1,   1)
       Max divergence:  0.48E+01 at (  51,   1,  51)
       Min divergence: -0.29E+01 at (  51,   1,   1)
       Max VN number:   0.10E+00 at (  51,   1,  51)
       Mesh   13
       Max CFL number:  0.49E+00 at (   1,   1,   1)
       Max divergence:  0.48E+01 at (  51,   1,  51)
       Min divergence: -0.29E+01 at (   1,   1,  51)
       Max VN number:   0.10E+00 at (  51,   1,  51)
       Mesh   14
       Max CFL number:  0.49E+00 at (  64,   1,   2)
       Max divergence:  0.34E+01 at (  51,   1,   1)
       Min divergence: -0.35E+01 at (  51,   1,  51)
       Max VN number:   0.98E-01 at (   1,   1,  51)
       Mesh   15
       Max CFL number:  0.49E+00 at (   1,   1,   1)
       Max divergence:  0.48E+01 at (  51,   1,  51)
       Min divergence: -0.29E+01 at (   1,   1,  51)
       Max VN number:   0.10E+00 at (  51,   1,  51)
       Mesh   16
       Max CFL number:  0.49E+00 at (   2,   1,  64)
       Max divergence:  0.34E+01 at (  51,   1,   1)
       Min divergence: -0.35E+01 at (  51,   1,  51)
       Max VN number:   0.98E-01 at (  51,   1,   1)
 
       Time Step     200   February 19, 2020  19:31:27
       Step Size:    0.302E-02 s, Total Time:       0.58 s
       Pressure Iterations:      1
       Maximum Velocity Error:  0.56E-16 on Mesh   1 at (   0   1   7)
       Maximum Pressure Error:  0.15E+01 on Mesh  10 at (   3   1   3)
       ScaRC: iterations   157, residual  0.85E-08, convergence rate   0.83E+00
       ---------------------------------------------------------------
       Mesh    1
       Max CFL number:  0.48E+00 at (   1,   1,  57)
       Max divergence:  0.13E+01 at (   4,   1,   4)
       Min divergence: -0.42E+01 at (   5,   1,  64)
       Max VN number:   0.21E+00 at (  64,   1,   6)
       Mesh    2
       Max CFL number:  0.49E+00 at (  59,   1,  59)
       Max divergence:  0.13E+01 at (   4,   1,  64)
       Min divergence: -0.48E+01 at (   5,   1,   5)
       Max VN number:   0.22E+00 at (   6,   1,   6)
       Mesh    3
       Max CFL number:  0.48E+00 at (  57,   1,   1)
       Max divergence:  0.13E+01 at (   4,   1,   4)
       Min divergence: -0.42E+01 at (  64,   1,   5)
       Max VN number:   0.21E+00 at (   6,   1,  64)
       Mesh    4
       Max CFL number:  0.49E+00 at (  59,   1,  59)
       Max divergence:  0.13E+01 at (   4,   1,  64)
       Min divergence: -0.48E+01 at (   5,   1,   5)
       Max VN number:   0.22E+00 at (   6,   1,   6)
       Mesh    5
       Max CFL number:  0.49E+00 at (  59,   1,  59)
       Max divergence:  0.13E+01 at (  64,   1,   4)
       Min divergence: -0.48E+01 at (   5,   1,   5)
       Max VN number:   0.22E+00 at (   6,   1,   6)
       Mesh    6
       Max CFL number:  0.48E+00 at (  57,   1,   1)
       Max divergence:  0.13E+01 at (   4,   1,   4)
       Min divergence: -0.42E+01 at (  64,   1,   5)
       Max VN number:   0.21E+00 at (   6,   1,  64)
       Mesh    7
       Max CFL number:  0.49E+00 at (  59,   1,  59)
       Max divergence:  0.13E+01 at (  64,   1,   4)
       Min divergence: -0.48E+01 at (   5,   1,   5)
       Max VN number:   0.22E+00 at (   6,   1,   6)
       Mesh    8
       Max CFL number:  0.48E+00 at (  57,   1,   1)
       Max divergence:  0.13E+01 at (   4,   1,   4)
       Min divergence: -0.42E+01 at (   5,   1,  64)
       Max VN number:   0.21E+00 at (   6,   1,  64)
       Mesh    9
       Max CFL number:  0.48E+00 at (   1,   1,  57)
       Max divergence:  0.13E+01 at (   4,   1,   4)
       Min divergence: -0.42E+01 at (   5,   1,  64)
       Max VN number:   0.21E+00 at (   6,   1,  64)
       Mesh   10
       Max CFL number:  0.49E+00 at (  59,   1,  59)
       Max divergence:  0.13E+01 at (   4,   1,  64)
       Min divergence: -0.48E+01 at (   5,   1,   5)
       Max VN number:   0.22E+00 at (   6,   1,   6)
       Mesh   11
       Max CFL number:  0.48E+00 at (   1,   1,  57)
       Max divergence:  0.13E+01 at (   4,   1,   4)
       Min divergence: -0.42E+01 at (   5,   1,  64)
       Max VN number:   0.21E+00 at (   6,   1,  64)
       Mesh   12
       Max CFL number:  0.49E+00 at (  59,   1,  59)
       Max divergence:  0.13E+01 at (  64,   1,   4)
       Min divergence: -0.48E+01 at (   5,   1,   5)
       Max VN number:   0.22E+00 at (   6,   1,   6)
       Mesh   13
       Max CFL number:  0.49E+00 at (  59,   1,  59)
       Max divergence:  0.13E+01 at (  64,   1,   4)
       Min divergence: -0.48E+01 at (   5,   1,   5)
       Max VN number:   0.22E+00 at (   6,   1,   6)
       Mesh   14
       Max CFL number:  0.48E+00 at (   1,   1,  57)
       Max divergence:  0.13E+01 at (   4,   1,   4)
       Min divergence: -0.42E+01 at (  64,   1,   5)
       Max VN number:   0.21E+00 at (  64,   1,   6)
       Mesh   15
       Max CFL number:  0.49E+00 at (  59,   1,  59)
       Max divergence:  0.13E+01 at (   4,   1,  64)
       Min divergence: -0.48E+01 at (   5,   1,   5)
       Max VN number:   0.22E+00 at (   6,   1,   6)
       Mesh   16
       Max CFL number:  0.48E+00 at (   1,   1,  57)
       Max divergence:  0.13E+01 at (   4,   1,   4)
       Min divergence: -0.42E+01 at (   5,   1,  64)
       Max VN number:   0.21E+00 at (  64,   1,   6)
 
       Time Step     300   February 19, 2020  19:32:17
       Step Size:    0.271E-02 s, Total Time:       0.85 s
       Pressure Iterations:      1
       Maximum Velocity Error:  0.11E-15 on Mesh   1 at (  65   1   9)
       Maximum Pressure Error:  0.64E+00 on Mesh   1 at (  21   1  21)
       ScaRC: iterations   157, residual  0.64E-08, convergence rate   0.83E+00
       ---------------------------------------------------------------
       Mesh    1
       Max CFL number:  0.48E+00 at (  35,   1,  36)
       Max divergence:  0.56E+01 at (  23,   1,  23)
       Min divergence: -0.16E+01 at (  64,   1,  23)
       Max VN number:   0.14E+00 at (  23,   1,  23)
       Mesh    2
       Max CFL number:  0.43E+00 at (   1,   1,  12)
       Max divergence:  0.94E+00 at (  23,   1,  64)
       Min divergence: -0.24E+01 at (  23,   1,  23)
       Max VN number:   0.10E+00 at (  23,   1,  64)
       Mesh    3
       Max CFL number:  0.48E+00 at (  35,   1,  36)
       Max divergence:  0.56E+01 at (  23,   1,  23)
       Min divergence: -0.16E+01 at (  64,   1,  23)
       Max VN number:   0.14E+00 at (  23,   1,  23)
       Mesh    4
       Max CFL number:  0.43E+00 at (  12,   1,   1)
       Max divergence:  0.94E+00 at (  23,   1,  64)
       Min divergence: -0.24E+01 at (  23,   1,  23)
       Max VN number:   0.10E+00 at (  23,   1,  64)
       Mesh    5
       Max CFL number:  0.43E+00 at (  12,   1,   1)
       Max divergence:  0.94E+00 at (  64,   1,  23)
       Min divergence: -0.24E+01 at (  23,   1,  23)
       Max VN number:   0.10E+00 at (  64,   1,  23)
       Mesh    6
       Max CFL number:  0.48E+00 at (  36,   1,  35)
       Max divergence:  0.56E+01 at (  23,   1,  23)
       Min divergence: -0.16E+01 at (  23,   1,  64)
       Max VN number:   0.14E+00 at (  23,   1,  23)
       Mesh    7
       Max CFL number:  0.43E+00 at (   1,   1,  12)
       Max divergence:  0.94E+00 at (  64,   1,  23)
       Min divergence: -0.24E+01 at (  23,   1,  23)
       Max VN number:   0.10E+00 at (  23,   1,  64)
       Mesh    8
       Max CFL number:  0.48E+00 at (  35,   1,  36)
       Max divergence:  0.56E+01 at (  23,   1,  23)
       Min divergence: -0.16E+01 at (  23,   1,  64)
       Max VN number:   0.14E+00 at (  23,   1,  23)
       Mesh    9
       Max CFL number:  0.48E+00 at (  36,   1,  35)
       Max divergence:  0.56E+01 at (  23,   1,  23)
       Min divergence: -0.16E+01 at (  64,   1,  23)
       Max VN number:   0.14E+00 at (  23,   1,  23)
       Mesh   10
       Max CFL number:  0.43E+00 at (  12,   1,   1)
       Max divergence:  0.94E+00 at (  64,   1,  23)
       Min divergence: -0.24E+01 at (  23,   1,  23)
       Max VN number:   0.10E+00 at (  64,   1,  23)
       Mesh   11
       Max CFL number:  0.48E+00 at (  35,   1,  36)
       Max divergence:  0.56E+01 at (  23,   1,  23)
       Min divergence: -0.16E+01 at (  64,   1,  23)
       Max VN number:   0.14E+00 at (  23,   1,  23)
       Mesh   12
       Max CFL number:  0.43E+00 at (   1,   1,  12)
       Max divergence:  0.94E+00 at (  64,   1,  23)
       Min divergence: -0.24E+01 at (  23,   1,  23)
       Max VN number:   0.10E+00 at (  64,   1,  23)
       Mesh   13
       Max CFL number:  0.43E+00 at (   1,   1,  12)
       Max divergence:  0.94E+00 at (  64,   1,  23)
       Min divergence: -0.24E+01 at (  23,   1,  23)
       Max VN number:   0.10E+00 at (  64,   1,  23)
       Mesh   14
       Max CFL number:  0.48E+00 at (  35,   1,  36)
       Max divergence:  0.56E+01 at (  23,   1,  23)
       Min divergence: -0.16E+01 at (  64,   1,  23)
       Max VN number:   0.14E+00 at (  23,   1,  23)
       Mesh   15
       Max CFL number:  0.43E+00 at (  12,   1,   1)
       Max divergence:  0.94E+00 at (  64,   1,  23)
       Min divergence: -0.24E+01 at (  23,   1,  23)
       Max VN number:   0.10E+00 at (  23,   1,  64)
       Mesh   16
       Max CFL number:  0.48E+00 at (  35,   1,  36)
       Max divergence:  0.56E+01 at (  23,   1,  23)
       Min divergence: -0.16E+01 at (  64,   1,  23)
       Max VN number:   0.14E+00 at (  23,   1,  23)
 
       Time Step     354   February 19, 2020  19:32:43
       Step Size:    0.232E-03 s, Total Time:       1.00 s
       Pressure Iterations:      1
       Maximum Velocity Error:  0.11E-15 on Mesh   2 at (  65   1  27)
       Maximum Pressure Error:  0.73E-01 on Mesh   8 at (  36   1  36)
       ScaRC: iterations   139, residual  0.99E-08, convergence rate   0.84E+00
       ---------------------------------------------------------------
       Mesh    1
       Max CFL number:  0.30E-01 at (  33,   1,  33)
       Max divergence:  0.62E-01 at (  33,   1,  33)
       Min divergence: -0.28E-01 at (  35,   1,  35)
       Max VN number:   0.21E-01 at (  32,   1,  32)
       Mesh    2
       Max CFL number:  0.30E-01 at (  30,   1,  30)
       Max divergence:  0.33E-02 at (  30,   1,  30)
       Min divergence: -0.33E-02 at (  32,   1,  32)
       Max VN number:   0.71E-02 at (   1,   1,  64)
       Mesh    3
       Max CFL number:  0.30E-01 at (  33,   1,  33)
       Max divergence:  0.62E-01 at (  33,   1,  33)
       Min divergence: -0.28E-01 at (  35,   1,  35)
       Max VN number:   0.21E-01 at (  32,   1,  32)
       Mesh    4
       Max CFL number:  0.30E-01 at (  30,   1,  30)
       Max divergence:  0.33E-02 at (  30,   1,  30)
       Min divergence: -0.33E-02 at (  32,   1,  32)
       Max VN number:   0.71E-02 at (  64,   1,   1)
       Mesh    5
       Max CFL number:  0.30E-01 at (  30,   1,  30)
       Max divergence:  0.33E-02 at (  30,   1,  30)
       Min divergence: -0.33E-02 at (  32,   1,  32)
       Max VN number:   0.71E-02 at (  64,   1,   1)
       Mesh    6
       Max CFL number:  0.30E-01 at (  33,   1,  33)
       Max divergence:  0.62E-01 at (  33,   1,  33)
       Min divergence: -0.28E-01 at (  35,   1,  35)
       Max VN number:   0.21E-01 at (  32,   1,  32)
       Mesh    7
       Max CFL number:  0.30E-01 at (  30,   1,  30)
       Max divergence:  0.33E-02 at (  30,   1,  30)
       Min divergence: -0.33E-02 at (  32,   1,  32)
       Max VN number:   0.71E-02 at (  64,   1,   1)
       Mesh    8
       Max CFL number:  0.30E-01 at (  33,   1,  33)
       Max divergence:  0.62E-01 at (  33,   1,  33)
       Min divergence: -0.28E-01 at (  35,   1,  35)
       Max VN number:   0.21E-01 at (  32,   1,  32)
       Mesh    9
       Max CFL number:  0.30E-01 at (  33,   1,  33)
       Max divergence:  0.62E-01 at (  33,   1,  33)
       Min divergence: -0.28E-01 at (  35,   1,  35)
       Max VN number:   0.21E-01 at (  32,   1,  32)
       Mesh   10
       Max CFL number:  0.30E-01 at (  30,   1,  30)
       Max divergence:  0.33E-02 at (  30,   1,  30)
       Min divergence: -0.33E-02 at (  32,   1,  32)
       Max VN number:   0.71E-02 at (   1,   1,  64)
       Mesh   11
       Max CFL number:  0.30E-01 at (  33,   1,  33)
       Max divergence:  0.62E-01 at (  33,   1,  33)
       Min divergence: -0.28E-01 at (  35,   1,  35)
       Max VN number:   0.21E-01 at (  32,   1,  32)
       Mesh   12
       Max CFL number:  0.30E-01 at (  30,   1,  30)
       Max divergence:  0.33E-02 at (  30,   1,  30)
       Min divergence: -0.33E-02 at (  32,   1,  32)
       Max VN number:   0.71E-02 at (   1,   1,  64)
       Mesh   13
       Max CFL number:  0.30E-01 at (  30,   1,  30)
       Max divergence:  0.33E-02 at (  30,   1,  30)
       Min divergence: -0.33E-02 at (  32,   1,  32)
       Max VN number:   0.71E-02 at (   1,   1,  64)
       Mesh   14
       Max CFL number:  0.30E-01 at (  33,   1,  33)
       Max divergence:  0.62E-01 at (  33,   1,  33)
       Min divergence: -0.28E-01 at (  35,   1,  35)
       Max VN number:   0.21E-01 at (  32,   1,  32)
       Mesh   15
       Max CFL number:  0.30E-01 at (  30,   1,  30)
       Max divergence:  0.33E-02 at (  30,   1,  30)
       Min divergence: -0.33E-02 at (  32,   1,  32)
       Max VN number:   0.71E-02 at (  64,   1,   1)
       Mesh   16
       Max CFL number:  0.30E-01 at (  33,   1,  33)
       Max divergence:  0.62E-01 at (  33,   1,  33)
       Min divergence: -0.28E-01 at (  35,   1,  35)
       Max VN number:   0.21E-01 at (  32,   1,  32)
 


 Time Stepping Wall Clock Time (s):      178.561
 Total Elapsed Wall Clock Time (s):      178.961

STOP: FDS completed successfully (CHID: shunn3_16mesh_256_scarc)
