
 Fire Dynamics Simulator

 Current Date     : February 19, 2020  19:29:44
 Revision         : -master
 Revision Date    : Wed Feb 19 18:38:00 2020 +0100
 Compiler         : Intel ifort 18.0.1
 Compilation Date : Feb 19, 2020 18:48:59

 MPI Enabled;    Number of MPI Processes:      16
 OpenMP Enabled; Number of OpenMP Threads:      1

 MPI version: 3.1
 MPI library version: Intel(R) MPI Library 2018 Update 1 for Linux* OS


 Job TITLE        : Shunn et al. (2012) JCP, Problem 3, FLUX_LIMITER=CHARM
 Job ID string    : shunn3_16mesh_128_scarc


 Grid Dimensions, Mesh     1

   Cells in the X Direction            32
   Cells in the Y Direction             1
   Cells in the Z Direction            32
   Number of Grid Cells              1024


 Physical Dimensions, Mesh     1

   Length (m)                       0.500
   Width  (m)                       0.100
   Height (m)                       0.500
   Initial Time Step (s)            0.009

 Grid Dimensions, Mesh     2

   Cells in the X Direction            32
   Cells in the Y Direction             1
   Cells in the Z Direction            32
   Number of Grid Cells              1024


 Physical Dimensions, Mesh     2

   Length (m)                       0.500
   Width  (m)                       0.100
   Height (m)                       0.500
   Initial Time Step (s)            0.009

 Grid Dimensions, Mesh     3

   Cells in the X Direction            32
   Cells in the Y Direction             1
   Cells in the Z Direction            32
   Number of Grid Cells              1024


 Physical Dimensions, Mesh     3

   Length (m)                       0.500
   Width  (m)                       0.100
   Height (m)                       0.500
   Initial Time Step (s)            0.009

 Grid Dimensions, Mesh     4

   Cells in the X Direction            32
   Cells in the Y Direction             1
   Cells in the Z Direction            32
   Number of Grid Cells              1024


 Physical Dimensions, Mesh     4

   Length (m)                       0.500
   Width  (m)                       0.100
   Height (m)                       0.500
   Initial Time Step (s)            0.009

 Grid Dimensions, Mesh     5

   Cells in the X Direction            32
   Cells in the Y Direction             1
   Cells in the Z Direction            32
   Number of Grid Cells              1024


 Physical Dimensions, Mesh     5

   Length (m)                       0.500
   Width  (m)                       0.100
   Height (m)                       0.500
   Initial Time Step (s)            0.009

 Grid Dimensions, Mesh     6

   Cells in the X Direction            32
   Cells in the Y Direction             1
   Cells in the Z Direction            32
   Number of Grid Cells              1024


 Physical Dimensions, Mesh     6

   Length (m)                       0.500
   Width  (m)                       0.100
   Height (m)                       0.500
   Initial Time Step (s)            0.009

 Grid Dimensions, Mesh     7

   Cells in the X Direction            32
   Cells in the Y Direction             1
   Cells in the Z Direction            32
   Number of Grid Cells              1024


 Physical Dimensions, Mesh     7

   Length (m)                       0.500
   Width  (m)                       0.100
   Height (m)                       0.500
   Initial Time Step (s)            0.009

 Grid Dimensions, Mesh     8

   Cells in the X Direction            32
   Cells in the Y Direction             1
   Cells in the Z Direction            32
   Number of Grid Cells              1024


 Physical Dimensions, Mesh     8

   Length (m)                       0.500
   Width  (m)                       0.100
   Height (m)                       0.500
   Initial Time Step (s)            0.009

 Grid Dimensions, Mesh     9

   Cells in the X Direction            32
   Cells in the Y Direction             1
   Cells in the Z Direction            32
   Number of Grid Cells              1024


 Physical Dimensions, Mesh     9

   Length (m)                       0.500
   Width  (m)                       0.100
   Height (m)                       0.500
   Initial Time Step (s)            0.009

 Grid Dimensions, Mesh    10

   Cells in the X Direction            32
   Cells in the Y Direction             1
   Cells in the Z Direction            32
   Number of Grid Cells              1024


 Physical Dimensions, Mesh    10

   Length (m)                       0.500
   Width  (m)                       0.100
   Height (m)                       0.500
   Initial Time Step (s)            0.009

 Grid Dimensions, Mesh    11

   Cells in the X Direction            32
   Cells in the Y Direction             1
   Cells in the Z Direction            32
   Number of Grid Cells              1024


 Physical Dimensions, Mesh    11

   Length (m)                       0.500
   Width  (m)                       0.100
   Height (m)                       0.500
   Initial Time Step (s)            0.009

 Grid Dimensions, Mesh    12

   Cells in the X Direction            32
   Cells in the Y Direction             1
   Cells in the Z Direction            32
   Number of Grid Cells              1024


 Physical Dimensions, Mesh    12

   Length (m)                       0.500
   Width  (m)                       0.100
   Height (m)                       0.500
   Initial Time Step (s)            0.009

 Grid Dimensions, Mesh    13

   Cells in the X Direction            32
   Cells in the Y Direction             1
   Cells in the Z Direction            32
   Number of Grid Cells              1024


 Physical Dimensions, Mesh    13

   Length (m)                       0.500
   Width  (m)                       0.100
   Height (m)                       0.500
   Initial Time Step (s)            0.009

 Grid Dimensions, Mesh    14

   Cells in the X Direction            32
   Cells in the Y Direction             1
   Cells in the Z Direction            32
   Number of Grid Cells              1024


 Physical Dimensions, Mesh    14

   Length (m)                       0.500
   Width  (m)                       0.100
   Height (m)                       0.500
   Initial Time Step (s)            0.009

 Grid Dimensions, Mesh    15

   Cells in the X Direction            32
   Cells in the Y Direction             1
   Cells in the Z Direction            32
   Number of Grid Cells              1024


 Physical Dimensions, Mesh    15

   Length (m)                       0.500
   Width  (m)                       0.100
   Height (m)                       0.500
   Initial Time Step (s)            0.009

 Grid Dimensions, Mesh    16

   Cells in the X Direction            32
   Cells in the Y Direction             1
   Cells in the Z Direction            32
   Number of Grid Cells              1024


 Physical Dimensions, Mesh    16

   Length (m)                       0.500
   Width  (m)                       0.100
   Height (m)                       0.500
   Initial Time Step (s)            0.009

Total Number of Grid Cells         16384


 Miscellaneous Parameters

   Simulation Start Time (s)          0.0
   Simulation End Time (s)            1.0
   Ambient Temperature (C):         20.00


 Mass Fraction Transformation Matrix to Convert Species Mixtures (Columns) to Primitive Species (Rows)

                         BACKGROU  SCALAR  
   BACKGROUND            1.000000  0.000000
   SCALAR                0.000000  1.000000


 Primitive Species Information

   BACKGROUND
   Gas Species
   Molecular Weight (g/mol)            50.00000
   Ambient Density (kg/m^3)            5.000
   Enthalpy of Formation (J/kg)        2.98E+05

   SCALAR
   Gas Species
   Molecular Weight (g/mol)            10.00000
   Ambient Density (kg/m^3)            1.000
   Enthalpy of Formation (J/kg)        2.98E+05


 Tracked (Lumped) Species Information

   BACKGROUND
   Molecular Weight (g/mol)            50.00000
   Ambient Density (kg/m^3)            5.000
   Initial Mass Fraction               1.000
   Enthalpy of Formation (J/kg)      2.98E+05

   Sub Species                    Mass Fraction     Mole Fraction
   BACKGROUND                     1.000000E+00      1.000000E+00
 
     Viscosity (kg/m/s) Ambient,  293 K:  1.00E-03
                                  500 K:  1.00E-03
                                 1000 K:  1.00E-03
                                 1500 K:  1.00E-03
   Therm. Cond. (W/m/K) Ambient,  293 K:  1.41E+00
                                  500 K:  1.41E+00
                                 1000 K:  1.41E+00
                                 1500 K:  1.41E+00
        Enthalpy (J/kg) Ambient,  293 K:  2.93E+05
                                  500 K:  5.00E+05
                                 1000 K:  1.00E+06
                                 1500 K:  1.50E+06
    Spec. Heat (J/kg/K) Ambient,  293 K:  1.00E+03
                                  500 K:  1.00E+03
                                 1000 K:  1.00E+03
                                 1500 K:  1.00E+03
   Diff. Coeff. (m^2/s) Ambient,  293 K:  1.49E-05
                                  500 K:  3.69E-05
                                 1000 K:  1.17E-04
                                 1500 K:  2.30E-04

   SCALAR
   Molecular Weight (g/mol)            10.00000
   Ambient Density (kg/m^3)            1.000
   Initial Mass Fraction               0.000
   Enthalpy of Formation (J/kg)      2.98E+05

   Sub Species                    Mass Fraction     Mole Fraction
   SCALAR                         1.000000E+00      1.000000E+00
 
     Viscosity (kg/m/s) Ambient,  293 K:  1.00E-03
                                  500 K:  1.00E-03
                                 1000 K:  1.00E-03
                                 1500 K:  1.00E-03
   Therm. Cond. (W/m/K) Ambient,  293 K:  1.41E+00
                                  500 K:  1.41E+00
                                 1000 K:  1.41E+00
                                 1500 K:  1.41E+00
        Enthalpy (J/kg) Ambient,  293 K:  2.93E+05
                                  500 K:  5.00E+05
                                 1000 K:  1.00E+06
                                 1500 K:  1.50E+06
    Spec. Heat (J/kg/K) Ambient,  293 K:  1.00E+03
                                  500 K:  1.00E+03
                                 1000 K:  1.00E+03
                                 1500 K:  1.00E+03
   Diff. Coeff. (m^2/s) Ambient,  293 K:  2.57E-05
                                  500 K:  6.40E-05
                                 1000 K:  2.03E-04
                                 1500 K:  3.98E-04


 Material Information


 Surface Conditions

   0 INERT (DEFAULT)

   1 OPEN
     Passive Vent to Atmosphere

   2 MIRROR
     Symmetry Plane

   3 INTERPOLATED

   4 PERIODIC

   5 HVAC

   6 MASSLESS TRACER

   7 DROPLET

   8 EVACUATION_OUTFLOW
     Normal Velocity (m/s)         0.000

   9 MASSLESS TARGET

  10 PERIODIC WIND

  11 SLICE


 Device Coordinates

     1 Coords:     -0.000156      0.000000     -0.000156, Make: null, ID: scarc-iter, Quantity: SCARC ITERATIONS
     2 Coords:     -0.000156      0.000000     -0.000156, Make: null, ID: scarc-rate, Quantity: SCARC CONVERGENCE RATE
     3 Coords:     -0.000156      0.000000     -0.000156, Make: null, ID: scarc-res, Quantity: SCARC RESIDUAL


 Slice File Information, Mesh     1

   Sampling Interval (s)             0.001

   1 Nodes:   0  32   1   1   0  32, Quantity: VELOCITY
   2 Nodes:   0  32   1   1   0  32, Quantity: U-VELOCITY
   3 Nodes:   0  32   1   1   0  32, Quantity: W-VELOCITY
   4 Nodes:   0  32   1   1   0  32, Quantity: DENSITY
   5 Nodes:   0  32   1   1   0  32, Quantity: DIVERGENCE
   6 Nodes:   0  32   1   1   0  32, Quantity: SCALAR MASS FRACTION
   7 Nodes:   0  32   1   1   0  32, Quantity: TEMPERATURE
   8 Nodes:   0  32   1   1   0  32, Quantity: H
   9 Nodes:   0  32   1   1   0  32, Quantity: PRESSURE
  10 Nodes:   0  32   1   1   0  32, Quantity: VISCOSITY


 SCARC Information

   Discretization        STRUCTURED
   Global solver             KRYLOV
   Storage technique        COMPACT
   Preconditioner           PARDISO
   Max iterations              1000
   Stopping accuracy       0.10E-07
 
 

 Run Time Diagnostics

       Time Step       1   February 19, 2020  19:29:44
       Step Size:    0.677E-02 s, Total Time:      0.007 s
       Pressure Iterations:      1
       Maximum Velocity Error:  0.56E-16 on Mesh   1 at (  33   1  18)
       Maximum Pressure Error:  0.27E+01 on Mesh   1 at (  14   1  14)
       ScaRC: iterations   103, residual  0.84E-08, convergence rate   0.79E+00
       ---------------------------------------------------------------
       Mesh    1
       Max CFL number:  0.45E+00 at (  13,   1,  13)
       Max divergence:  0.57E-01 at (   1,   1,  17)
       Min divergence: -0.54E+00 at (  16,   1,  16)
       Max div. error:  0.35E-07 at (   1,   1,  31)
       Max VN number:   0.16E+00 at (  17,   1,  17)
       Mesh    2
       Max CFL number:  0.44E+00 at (  32,   1,  17)
       Max divergence:  0.11E+00 at (  16,   1,  16)
       Min divergence:  0.23E-03 at (   1,   1,   1)
       Max div. error:  0.35E-07 at (   1,   1,   1)
       Max VN number:   0.52E-01 at (   1,   1,   1)
       Mesh    3
       Max CFL number:  0.45E+00 at (  13,   1,  13)
       Max divergence:  0.57E-01 at (   1,   1,  17)
       Min divergence: -0.54E+00 at (  16,   1,  16)
       Max div. error:  0.35E-07 at (   1,   1,  32)
       Max VN number:   0.16E+00 at (  17,   1,  17)
       Mesh    4
       Max CFL number:  0.44E+00 at (  32,   1,  17)
       Max divergence:  0.11E+00 at (  16,   1,  16)
       Min divergence:  0.23E-03 at (   1,   1,   1)
       Max div. error:  0.35E-07 at (   9,   1,   1)
       Max VN number:   0.52E-01 at (   1,   1,   1)
       Mesh    5
       Max CFL number:  0.44E+00 at (  17,   1,  32)
       Max divergence:  0.11E+00 at (  16,   1,  16)
       Min divergence:  0.23E-03 at (   1,   1,   1)
       Max div. error:  0.35E-07 at (   1,   1,   1)
       Max VN number:   0.52E-01 at (   1,   1,   1)
       Mesh    6
       Max CFL number:  0.45E+00 at (  13,   1,  13)
       Max divergence:  0.57E-01 at (   1,   1,  17)
       Min divergence: -0.54E+00 at (  16,   1,  16)
       Max div. error:  0.35E-07 at (  32,   1,   1)
       Max VN number:   0.16E+00 at (  17,   1,  17)
       Mesh    7
       Max CFL number:  0.44E+00 at (  17,   1,  32)
       Max divergence:  0.11E+00 at (  16,   1,  16)
       Min divergence:  0.23E-03 at (   1,   1,   1)
       Max div. error:  0.35E-07 at (  32,   1,  32)
       Max VN number:   0.52E-01 at (   1,   1,   1)
       Mesh    8
       Max CFL number:  0.45E+00 at (  13,   1,  13)
       Max divergence:  0.57E-01 at (   1,   1,  17)
       Min divergence: -0.54E+00 at (  16,   1,  16)
       Max div. error:  0.35E-07 at (  32,   1,  16)
       Max VN number:   0.16E+00 at (  17,   1,  17)
       Mesh    9
       Max CFL number:  0.45E+00 at (  13,   1,  13)
       Max divergence:  0.57E-01 at (  17,   1,   1)
       Min divergence: -0.54E+00 at (  16,   1,  16)
       Max div. error:  0.35E-07 at (  32,   1,   1)
       Max VN number:   0.16E+00 at (  17,   1,  17)
       Mesh   10
       Max CFL number:  0.44E+00 at (  32,   1,  17)
       Max divergence:  0.11E+00 at (  16,   1,  16)
       Min divergence:  0.23E-03 at (   1,   1,   1)
       Max div. error:  0.35E-07 at (  32,   1,  32)
       Max VN number:   0.52E-01 at (   1,   1,   1)
       Mesh   11
       Max CFL number:  0.45E+00 at (  13,   1,  13)
       Max divergence:  0.57E-01 at (  17,   1,   1)
       Min divergence: -0.54E+00 at (  16,   1,  16)
       Max div. error:  0.35E-07 at (   1,   1,   1)
       Max VN number:   0.16E+00 at (  17,   1,  17)
       Mesh   12
       Max CFL number:  0.44E+00 at (  17,   1,  32)
       Max divergence:  0.11E+00 at (  16,   1,  16)
       Min divergence:  0.23E-03 at (   1,   1,   1)
       Max div. error:  0.35E-07 at (  32,   1,   8)
       Max VN number:   0.52E-01 at (   1,   1,   1)
       Mesh   13
       Max CFL number:  0.44E+00 at (  17,   1,  32)
       Max divergence:  0.11E+00 at (  16,   1,  16)
       Min divergence:  0.23E-03 at (   1,   1,   1)
       Max div. error:  0.35E-07 at (   1,   1,   9)
       Max VN number:   0.52E-01 at (   1,   1,   1)
       Mesh   14
       Max CFL number:  0.45E+00 at (  13,   1,  13)
       Max divergence:  0.57E-01 at (  17,   1,   1)
       Min divergence: -0.54E+00 at (  16,   1,  16)
       Max div. error:  0.35E-07 at (  16,   1,  32)
       Max VN number:   0.16E+00 at (  17,   1,  17)
       Mesh   15
       Max CFL number:  0.44E+00 at (  32,   1,  17)
       Max divergence:  0.11E+00 at (  16,   1,  16)
       Min divergence:  0.23E-03 at (   1,   1,   1)
       Max div. error:  0.35E-07 at (   8,   1,  32)
       Max VN number:   0.52E-01 at (   1,   1,   1)
       Mesh   16
       Max CFL number:  0.45E+00 at (  13,   1,  13)
       Max divergence:  0.57E-01 at (   1,   1,  17)
       Min divergence: -0.54E+00 at (  16,   1,  16)
       Max div. error:  0.35E-07 at (   7,   1,  32)
       Max VN number:   0.16E+00 at (  17,   1,  17)
 
       Time Step       2   February 19, 2020  19:29:44
       Step Size:    0.677E-02 s, Total Time:       0.01 s
       Pressure Iterations:      1
       Maximum Velocity Error:  0.56E-16 on Mesh   1 at (  33   1   4)
       Maximum Pressure Error:  0.25E+01 on Mesh   1 at (  14   1  16)
       ScaRC: iterations   104, residual  0.80E-08, convergence rate   0.78E+00
       ---------------------------------------------------------------
       Mesh    1
       Max CFL number:  0.46E+00 at (  13,   1,  13)
       Max divergence:  0.12E+00 at (  17,   1,   1)
       Min divergence: -0.10E+01 at (  16,   1,  16)
       Max div. error:  0.56E-07 at (  32,   1,   1)
       Max VN number:   0.15E+00 at (  17,   1,  17)
       Mesh    2
       Max CFL number:  0.45E+00 at (  18,   1,  32)
       Max divergence:  0.22E+00 at (  16,   1,  16)
       Min divergence:  0.25E-04 at (   1,   1,   1)
       Max div. error:  0.56E-07 at (  16,   1,   1)
       Max VN number:   0.52E-01 at (   1,   1,   1)
       Mesh    3
       Max CFL number:  0.46E+00 at (  13,   1,  13)
       Max divergence:  0.12E+00 at (  17,   1,   1)
       Min divergence: -0.10E+01 at (  16,   1,  16)
       Max div. error:  0.56E-07 at (   8,   1,   1)
       Max VN number:   0.15E+00 at (  17,   1,  17)
       Mesh    4
       Max CFL number:  0.45E+00 at (  32,   1,  18)
       Max divergence:  0.22E+00 at (  16,   1,  16)
       Min divergence:  0.25E-04 at (   1,   1,   1)
       Max div. error:  0.56E-07 at (  32,   1,  19)
       Max VN number:   0.52E-01 at (   1,   1,   1)
       Mesh    5
       Max CFL number:  0.45E+00 at (  32,   1,  18)
       Max divergence:  0.22E+00 at (  16,   1,  16)
       Min divergence:  0.25E-04 at (   1,   1,   1)
       Max div. error:  0.56E-07 at (   1,   1,  16)
       Max VN number:   0.52E-01 at (   1,   1,   1)
       Mesh    6
       Max CFL number:  0.46E+00 at (  13,   1,  13)
       Max divergence:  0.12E+00 at (  17,   1,   1)
       Min divergence: -0.10E+01 at (  16,   1,  16)
       Max div. error:  0.56E-07 at (  32,   1,  32)
       Max VN number:   0.15E+00 at (  17,   1,  17)
       Mesh    7
       Max CFL number:  0.45E+00 at (  18,   1,  32)
       Max divergence:  0.22E+00 at (  16,   1,  16)
       Min divergence:  0.25E-04 at (   1,   1,   1)
       Max div. error:  0.56E-07 at (   1,   1,  32)
       Max VN number:   0.52E-01 at (   1,   1,   1)
       Mesh    8
       Max CFL number:  0.46E+00 at (  13,   1,  13)
       Max divergence:  0.12E+00 at (  17,   1,   1)
       Min divergence: -0.10E+01 at (  16,   1,  16)
       Max div. error:  0.56E-07 at (   1,   1,  32)
       Max VN number:   0.15E+00 at (  17,   1,  17)
       Mesh    9
       Max CFL number:  0.46E+00 at (  13,   1,  13)
       Max divergence:  0.12E+00 at (   1,   1,  17)
       Min divergence: -0.10E+01 at (  16,   1,  16)
       Max div. error:  0.56E-07 at (   1,   1,   8)
       Max VN number:   0.15E+00 at (  17,   1,  17)
       Mesh   10
       Max CFL number:  0.45E+00 at (  32,   1,  18)
       Max divergence:  0.22E+00 at (  16,   1,  16)
       Min divergence:  0.25E-04 at (   1,   1,   1)
       Max div. error:  0.56E-07 at (  32,   1,   1)
       Max VN number:   0.52E-01 at (   1,   1,   1)
       Mesh   11
       Max CFL number:  0.46E+00 at (  13,   1,  13)
       Max divergence:  0.12E+00 at (   1,   1,  17)
       Min divergence: -0.10E+01 at (  16,   1,  16)
       Max div. error:  0.56E-07 at (   1,   1,   1)
       Max VN number:   0.15E+00 at (  17,   1,  17)
       Mesh   12
       Max CFL number:  0.45E+00 at (  32,   1,  18)
       Max divergence:  0.22E+00 at (  16,   1,  16)
       Min divergence:  0.25E-04 at (   1,   1,   1)
       Max div. error:  0.56E-07 at (  32,   1,   1)
       Max VN number:   0.52E-01 at (   1,   1,   1)
       Mesh   13
       Max CFL number:  0.45E+00 at (  18,   1,  32)
       Max divergence:  0.22E+00 at (  16,   1,  16)
       Min divergence:  0.25E-04 at (   1,   1,   1)
       Max div. error:  0.56E-07 at (  19,   1,  32)
       Max VN number:   0.52E-01 at (   1,   1,   1)
       Mesh   14
       Max CFL number:  0.46E+00 at (  13,   1,  13)
       Max divergence:  0.12E+00 at (   1,   1,  17)
       Min divergence: -0.10E+01 at (  16,   1,  16)
       Max div. error:  0.56E-07 at (  32,   1,   1)
       Max VN number:   0.15E+00 at (  17,   1,  17)
       Mesh   15
       Max CFL number:  0.45E+00 at (  18,   1,  32)
       Max divergence:  0.22E+00 at (  16,   1,  16)
       Min divergence:  0.25E-04 at (   1,   1,   1)
       Max div. error:  0.56E-07 at (   1,   1,  32)
       Max VN number:   0.52E-01 at (   1,   1,   1)
       Mesh   16
       Max CFL number:  0.46E+00 at (  13,   1,  13)
       Max divergence:  0.12E+00 at (   1,   1,  17)
       Min divergence: -0.10E+01 at (  16,   1,  16)
       Max div. error:  0.56E-07 at (   9,   1,  32)
       Max VN number:   0.15E+00 at (  17,   1,  17)
 
       Time Step       3   February 19, 2020  19:29:44
       Step Size:    0.677E-02 s, Total Time:       0.02 s
       Pressure Iterations:      1
       Maximum Velocity Error:  0.56E-16 on Mesh   1 at (  33   1   9)
       Maximum Pressure Error:  0.29E+01 on Mesh  16 at (  16   1  16)
       ScaRC: iterations   105, residual  0.62E-08, convergence rate   0.78E+00
       ---------------------------------------------------------------
       Mesh    1
       Max CFL number:  0.47E+00 at (  13,   1,  13)
       Max divergence:  0.18E+00 at (   1,   1,  17)
       Min divergence: -0.15E+01 at (  17,   1,  17)
       Max div. error:  0.76E-07 at (  28,   1,   1)
       Max VN number:   0.15E+00 at (  17,   1,  17)
       Mesh    2
       Max CFL number:  0.45E+00 at (  18,   1,  32)
       Max divergence:  0.32E+00 at (  16,   1,  16)
       Min divergence:  0.19E-03 at (   1,   1,   1)
       Max div. error:  0.76E-07 at (  18,   1,   1)
       Max VN number:   0.53E-01 at (   1,   1,  17)
       Mesh    3
       Max CFL number:  0.47E+00 at (  13,   1,  13)
       Max divergence:  0.18E+00 at (   1,   1,  17)
       Min divergence: -0.15E+01 at (  17,   1,  17)
       Max div. error:  0.76E-07 at (   1,   1,   1)
       Max VN number:   0.15E+00 at (  17,   1,  17)
       Mesh    4
       Max CFL number:  0.45E+00 at (  32,   1,  18)
       Max divergence:  0.32E+00 at (  16,   1,  16)
       Min divergence:  0.19E-03 at (   1,   1,   1)
       Max div. error:  0.76E-07 at (  18,   1,   1)
       Max VN number:   0.53E-01 at (   1,   1,  17)
       Mesh    5
       Max CFL number:  0.45E+00 at (  32,   1,  18)
       Max divergence:  0.32E+00 at (  16,   1,  16)
       Min divergence:  0.19E-03 at (   1,   1,   1)
       Max div. error:  0.76E-07 at (   1,   1,  18)
       Max VN number:   0.53E-01 at (  17,   1,   1)
       Mesh    6
       Max CFL number:  0.47E+00 at (  13,   1,  13)
       Max divergence:  0.18E+00 at (  17,   1,   1)
       Min divergence: -0.15E+01 at (  17,   1,  17)
       Max div. error:  0.76E-07 at (  32,   1,  32)
       Max VN number:   0.15E+00 at (  17,   1,  17)
       Mesh    7
       Max CFL number:  0.45E+00 at (  18,   1,  32)
       Max divergence:  0.32E+00 at (  16,   1,  16)
       Min divergence:  0.19E-03 at (   1,   1,   1)
       Max div. error:  0.76E-07 at (   1,   1,  32)
       Max VN number:   0.53E-01 at (   1,   1,  17)
       Mesh    8
       Max CFL number:  0.47E+00 at (  13,   1,  13)
       Max divergence:  0.18E+00 at (  17,   1,   1)
       Min divergence: -0.15E+01 at (  17,   1,  17)
       Max div. error:  0.76E-07 at (  32,   1,   1)
       Max VN number:   0.15E+00 at (  17,   1,  17)
       Mesh    9
       Max CFL number:  0.47E+00 at (  13,   1,  13)
       Max divergence:  0.18E+00 at (  17,   1,   1)
       Min divergence: -0.15E+01 at (  17,   1,  17)
       Max div. error:  0.76E-07 at (   1,   1,   1)
       Max VN number:   0.15E+00 at (  17,   1,  17)
       Mesh   10
       Max CFL number:  0.45E+00 at (  32,   1,  18)
       Max divergence:  0.32E+00 at (  16,   1,  16)
       Min divergence:  0.19E-03 at (   1,   1,   1)
       Max div. error:  0.76E-07 at (  32,   1,   1)
       Max VN number:   0.53E-01 at (   1,   1,  17)
       Mesh   11
       Max CFL number:  0.47E+00 at (  13,   1,  13)
       Max divergence:  0.18E+00 at (   1,   1,  17)
       Min divergence: -0.15E+01 at (  17,   1,  17)
       Max div. error:  0.76E-07 at (   1,   1,   1)
       Max VN number:   0.15E+00 at (  17,   1,  17)
       Mesh   12
       Max CFL number:  0.45E+00 at (  32,   1,  18)
       Max divergence:  0.32E+00 at (  16,   1,  16)
       Min divergence:  0.19E-03 at (   1,   1,   1)
       Max div. error:  0.76E-07 at (  32,   1,  12)
       Max VN number:   0.53E-01 at (  17,   1,   1)
       Mesh   13
       Max CFL number:  0.45E+00 at (  18,   1,  32)
       Max divergence:  0.32E+00 at (  16,   1,  16)
       Min divergence:  0.19E-03 at (   1,   1,   1)
       Max div. error:  0.76E-07 at (   1,   1,  18)
       Max VN number:   0.53E-01 at (  17,   1,   1)
       Mesh   14
       Max CFL number:  0.47E+00 at (  13,   1,  13)
       Max divergence:  0.18E+00 at (   1,   1,  17)
       Min divergence: -0.15E+01 at (  17,   1,  17)
       Max div. error:  0.76E-07 at (   1,   1,  32)
       Max VN number:   0.15E+00 at (  17,   1,  17)
       Mesh   15
       Max CFL number:  0.45E+00 at (  18,   1,  32)
       Max divergence:  0.32E+00 at (  16,   1,  16)
       Min divergence:  0.19E-03 at (   1,   1,   1)
       Max div. error:  0.76E-07 at (  12,   1,  32)
       Max VN number:   0.53E-01 at (   1,   1,  17)
       Mesh   16
       Max CFL number:  0.47E+00 at (  13,   1,  13)
       Max divergence:  0.18E+00 at (   1,   1,  17)
       Min divergence: -0.15E+01 at (  17,   1,  17)
       Max div. error:  0.76E-07 at (  24,   1,  32)
       Max VN number:   0.15E+00 at (  17,   1,  17)
 
       Time Step       4   February 19, 2020  19:29:45
       Step Size:    0.677E-02 s, Total Time:       0.03 s
       Pressure Iterations:      1
       Maximum Velocity Error:  0.56E-16 on Mesh   1 at (  33   1   6)
       Maximum Pressure Error:  0.35E+01 on Mesh   1 at (  16   1  16)
       ScaRC: iterations   105, residual  0.76E-08, convergence rate   0.78E+00
       ---------------------------------------------------------------
       Mesh    1
       Max CFL number:  0.48E+00 at (  13,   1,  13)
       Max divergence:  0.25E+00 at (   1,   1,  17)
       Min divergence: -0.20E+01 at (  17,   1,  17)
       Max div. error:  0.94E-07 at (   1,   1,  28)
       Max VN number:   0.15E+00 at (  17,   1,  17)
       Mesh    2
       Max CFL number:  0.46E+00 at (  32,   1,  19)
       Max divergence:  0.43E+00 at (  16,   1,  16)
       Min divergence: -0.39E-03 at (   1,   1,   2)
       Max div. error:  0.94E-07 at (  18,   1,   1)
       Max VN number:   0.53E-01 at (  17,   1,   1)
       Mesh    3
       Max CFL number:  0.48E+00 at (  13,   1,  13)
       Max divergence:  0.25E+00 at (   1,   1,  17)
       Min divergence: -0.20E+01 at (  17,   1,  17)
       Max div. error:  0.94E-07 at (   1,   1,   1)
       Max VN number:   0.15E+00 at (  17,   1,  17)
       Mesh    4
       Max CFL number:  0.46E+00 at (  32,   1,  19)
       Max divergence:  0.43E+00 at (  16,   1,  16)
       Min divergence: -0.39E-03 at (   1,   1,   2)
       Max div. error:  0.94E-07 at (  18,   1,   1)
       Max VN number:   0.53E-01 at (  17,   1,   1)
       Mesh    5
       Max CFL number:  0.46E+00 at (  19,   1,  32)
       Max divergence:  0.43E+00 at (  16,   1,  16)
       Min divergence: -0.39E-03 at (   2,   1,   1)
       Max div. error:  0.94E-07 at (   1,   1,  18)
       Max VN number:   0.53E-01 at (   1,   1,  17)
       Mesh    6
       Max CFL number:  0.48E+00 at (  13,   1,  13)
       Max divergence:  0.25E+00 at (   1,   1,  17)
       Min divergence: -0.20E+01 at (  17,   1,  17)
       Max div. error:  0.94E-07 at (  32,   1,  32)
       Max VN number:   0.15E+00 at (  17,   1,  17)
       Mesh    7
       Max CFL number:  0.46E+00 at (  19,   1,  32)
       Max divergence:  0.43E+00 at (  16,   1,  16)
       Min divergence: -0.39E-03 at (   1,   1,   2)
       Max div. error:  0.94E-07 at (   1,   1,  32)
       Max VN number:   0.53E-01 at (  17,   1,   1)
       Mesh    8
       Max CFL number:  0.48E+00 at (  13,   1,  13)
       Max divergence:  0.25E+00 at (  17,   1,   1)
       Min divergence: -0.20E+01 at (  17,   1,  17)
       Max div. error:  0.94E-07 at (  32,   1,   1)
       Max VN number:   0.15E+00 at (  17,   1,  17)
       Mesh    9
       Max CFL number:  0.48E+00 at (  13,   1,  13)
       Max divergence:  0.25E+00 at (  17,   1,   1)
       Min divergence: -0.20E+01 at (  17,   1,  17)
       Max div. error:  0.94E-07 at (   1,   1,   1)
       Max VN number:   0.15E+00 at (  17,   1,  17)
       Mesh   10
       Max CFL number:  0.46E+00 at (  32,   1,  19)
       Max divergence:  0.43E+00 at (  16,   1,  16)
       Min divergence: -0.39E-03 at (   2,   1,   1)
       Max div. error:  0.94E-07 at (  32,   1,   1)
       Max VN number:   0.53E-01 at (   1,   1,  17)
       Mesh   11
       Max CFL number:  0.48E+00 at (  13,   1,  13)
       Max divergence:  0.25E+00 at (   1,   1,  17)
       Min divergence: -0.20E+01 at (  17,   1,  17)
       Max div. error:  0.94E-07 at (   1,   1,   1)
       Max VN number:   0.15E+00 at (  17,   1,  17)
       Mesh   12
       Max CFL number:  0.46E+00 at (  19,   1,  32)
       Max divergence:  0.43E+00 at (  16,   1,  16)
       Min divergence: -0.39E-03 at (   2,   1,   1)
       Max div. error:  0.94E-07 at (  32,   1,  12)
       Max VN number:   0.53E-01 at (  17,   1,   1)
       Mesh   13
       Max CFL number:  0.46E+00 at (  19,   1,  32)
       Max divergence:  0.43E+00 at (  16,   1,  16)
       Min divergence: -0.39E-03 at (   2,   1,   1)
       Max div. error:  0.94E-07 at (   1,   1,  18)
       Max VN number:   0.53E-01 at (   1,   1,  17)
       Mesh   14
       Max CFL number:  0.48E+00 at (  13,   1,  13)
       Max divergence:  0.25E+00 at (   1,   1,  17)
       Min divergence: -0.20E+01 at (  17,   1,  17)
       Max div. error:  0.94E-07 at (   1,   1,  32)
       Max VN number:   0.15E+00 at (  17,   1,  17)
       Mesh   15
       Max CFL number:  0.46E+00 at (  32,   1,  19)
       Max divergence:  0.43E+00 at (  16,   1,  16)
       Min divergence: -0.39E-03 at (   1,   1,   2)
       Max div. error:  0.94E-07 at (  12,   1,  32)
       Max VN number:   0.53E-01 at (   1,   1,  17)
       Mesh   16
       Max CFL number:  0.48E+00 at (  13,   1,  13)
       Max divergence:  0.25E+00 at (   1,   1,  17)
       Min divergence: -0.20E+01 at (  17,   1,  17)
       Max div. error:  0.94E-07 at (  32,   1,  24)
       Max VN number:   0.15E+00 at (  17,   1,  17)
 
       Time Step       5   February 19, 2020  19:29:45
       Step Size:    0.677E-02 s, Total Time:       0.03 s
       Pressure Iterations:      1
       Maximum Velocity Error:  0.56E-16 on Mesh   1 at (  33   1  11)
       Maximum Pressure Error:  0.38E+01 on Mesh   1 at (  16   1  16)
       ScaRC: iterations   105, residual  0.91E-08, convergence rate   0.78E+00
       ---------------------------------------------------------------
       Mesh    1
       Max CFL number:  0.50E+00 at (  13,   1,  13)
       Max divergence:  0.32E+00 at (  18,   1,   1)
       Min divergence: -0.25E+01 at (  17,   1,  17)
       Max div. error:  0.11E-06 at (   1,   1,  28)
       Max VN number:   0.15E+00 at (  17,   1,  17)
       Mesh    2
       Max CFL number:  0.46E+00 at (  32,   1,  19)
       Max divergence:  0.54E+00 at (  16,   1,  16)
       Min divergence: -0.65E-03 at (   1,   1,   2)
       Max div. error:  0.11E-06 at (  18,   1,   1)
       Max VN number:   0.54E-01 at (  17,   1,   1)
       Mesh    3
       Max CFL number:  0.50E+00 at (  13,   1,  13)
       Max divergence:  0.32E+00 at (   1,   1,  18)
       Min divergence: -0.25E+01 at (  17,   1,  17)
       Max div. error:  0.11E-06 at (   1,   1,   1)
       Max VN number:   0.15E+00 at (  17,   1,  17)
       Mesh    4
       Max CFL number:  0.46E+00 at (  32,   1,  19)
       Max divergence:  0.54E+00 at (  16,   1,  16)
       Min divergence: -0.65E-03 at (   1,   1,   2)
       Max div. error:  0.11E-06 at (  18,   1,   1)
       Max VN number:   0.54E-01 at (  17,   1,   1)
       Mesh    5
       Max CFL number:  0.46E+00 at (  19,   1,  32)
       Max divergence:  0.54E+00 at (  16,   1,  16)
       Min divergence: -0.65E-03 at (   2,   1,   1)
       Max div. error:  0.11E-06 at (   1,   1,  18)
       Max VN number:   0.54E-01 at (   1,   1,  17)
       Mesh    6
       Max CFL number:  0.50E+00 at (  13,   1,  13)
       Max divergence:  0.32E+00 at (   1,   1,  18)
       Min divergence: -0.25E+01 at (  17,   1,  17)
       Max div. error:  0.11E-06 at (  32,   1,  32)
       Max VN number:   0.15E+00 at (  17,   1,  17)
       Mesh    7
       Max CFL number:  0.46E+00 at (  19,   1,  32)
       Max divergence:  0.54E+00 at (  16,   1,  16)
       Min divergence: -0.65E-03 at (   1,   1,   2)
       Max div. error:  0.11E-06 at (   1,   1,  32)
       Max VN number:   0.54E-01 at (  17,   1,   1)
       Mesh    8
       Max CFL number:  0.50E+00 at (  13,   1,  13)
       Max divergence:  0.32E+00 at (  18,   1,   1)
       Min divergence: -0.25E+01 at (  17,   1,  17)
       Max div. error:  0.11E-06 at (  32,   1,   1)
       Max VN number:   0.15E+00 at (  17,   1,  17)
       Mesh    9
       Max CFL number:  0.50E+00 at (  13,   1,  13)
       Max divergence:  0.32E+00 at (  18,   1,   1)
       Min divergence: -0.25E+01 at (  17,   1,  17)
       Max div. error:  0.11E-06 at (   1,   1,   1)
       Max VN number:   0.15E+00 at (  17,   1,  17)
       Mesh   10
       Max CFL number:  0.46E+00 at (  32,   1,  19)
       Max divergence:  0.54E+00 at (  16,   1,  16)
       Min divergence: -0.65E-03 at (   2,   1,   1)
       Max div. error:  0.11E-06 at (  32,   1,   1)
       Max VN number:   0.54E-01 at (   1,   1,  17)
       Mesh   11
       Max CFL number:  0.50E+00 at (  13,   1,  13)
       Max divergence:  0.32E+00 at (   1,   1,  18)
       Min divergence: -0.25E+01 at (  17,   1,  17)
       Max div. error:  0.11E-06 at (   1,   1,   1)
       Max VN number:   0.15E+00 at (  17,   1,  17)
       Mesh   12
       Max CFL number:  0.46E+00 at (  19,   1,  32)
       Max divergence:  0.54E+00 at (  16,   1,  16)
       Min divergence: -0.65E-03 at (   2,   1,   1)
       Max div. error:  0.11E-06 at (  32,   1,  12)
       Max VN number:   0.54E-01 at (  17,   1,   1)
       Mesh   13
       Max CFL number:  0.46E+00 at (  19,   1,  32)
       Max divergence:  0.54E+00 at (  16,   1,  16)
       Min divergence: -0.65E-03 at (   2,   1,   1)
       Max div. error:  0.11E-06 at (   1,   1,  18)
       Max VN number:   0.54E-01 at (   1,   1,  17)
       Mesh   14
       Max CFL number:  0.50E+00 at (  13,   1,  13)
       Max divergence:  0.32E+00 at (   1,   1,  18)
       Min divergence: -0.25E+01 at (  17,   1,  17)
       Max div. error:  0.11E-06 at (   1,   1,  32)
       Max VN number:   0.15E+00 at (  17,   1,  17)
       Mesh   15
       Max CFL number:  0.46E+00 at (  32,   1,  19)
       Max divergence:  0.54E+00 at (  16,   1,  16)
       Min divergence: -0.65E-03 at (   1,   1,   2)
       Max div. error:  0.11E-06 at (  12,   1,  32)
       Max VN number:   0.54E-01 at (   1,   1,  17)
       Mesh   16
       Max CFL number:  0.50E+00 at (  13,   1,  13)
       Max divergence:  0.32E+00 at (  18,   1,   1)
       Min divergence: -0.25E+01 at (  17,   1,  17)
       Max div. error:  0.11E-06 at (  24,   1,  32)
       Max VN number:   0.15E+00 at (  17,   1,  17)
 
       Time Step       6   February 19, 2020  19:29:45
       Step Size:    0.602E-02 s, Total Time:       0.04 s
       Pressure Iterations:      1
       Maximum Velocity Error:  0.56E-16 on Mesh   1 at (   0   1   1)
       Maximum Pressure Error:  0.33E+01 on Mesh   1 at (  16   1  16)
       ScaRC: iterations   105, residual  0.94E-08, convergence rate   0.78E+00
       ---------------------------------------------------------------
       Mesh    1
       Max CFL number:  0.45E+00 at (  14,   1,  13)
       Max divergence:  0.38E+00 at (  18,   1,   1)
       Min divergence: -0.29E+01 at (  18,   1,  18)
       Max div. error:  0.12E-06 at (  28,   1,   1)
       Max VN number:   0.13E+00 at (  18,   1,  18)
       Mesh    2
       Max CFL number:  0.42E+00 at (  32,   1,  19)
       Max divergence:  0.63E+00 at (  17,   1,  17)
       Min divergence: -0.27E-02 at (   3,   1,   1)
       Max div. error:  0.12E-06 at (  18,   1,   1)
       Max VN number:   0.49E-01 at (  18,   1,   1)
       Mesh    3
       Max CFL number:  0.45E+00 at (  14,   1,  13)
       Max divergence:  0.38E+00 at (   1,   1,  18)
       Min divergence: -0.29E+01 at (  18,   1,  18)
       Max div. error:  0.12E-06 at (   1,   1,   1)
       Max VN number:   0.13E+00 at (  18,   1,  18)
       Mesh    4
       Max CFL number:  0.42E+00 at (  32,   1,  19)
       Max divergence:  0.63E+00 at (  17,   1,  17)
       Min divergence: -0.27E-02 at (   3,   1,   1)
       Max div. error:  0.12E-06 at (  18,   1,   1)
       Max VN number:   0.49E-01 at (   1,   1,  18)
       Mesh    5
       Max CFL number:  0.42E+00 at (  19,   1,  32)
       Max divergence:  0.63E+00 at (  17,   1,  17)
       Min divergence: -0.27E-02 at (   1,   1,   3)
       Max div. error:  0.12E-06 at (   1,   1,  18)
       Max VN number:   0.49E-01 at (   1,   1,  18)
       Mesh    6
       Max CFL number:  0.45E+00 at (  13,   1,  14)
       Max divergence:  0.38E+00 at (  18,   1,   1)
       Min divergence: -0.29E+01 at (  18,   1,  18)
       Max div. error:  0.12E-06 at (  32,   1,  32)
       Max VN number:   0.13E+00 at (  18,   1,  18)
       Mesh    7
       Max CFL number:  0.42E+00 at (  19,   1,  32)
       Max divergence:  0.63E+00 at (  17,   1,  17)
       Min divergence: -0.27E-02 at (   1,   1,   3)
       Max div. error:  0.12E-06 at (   1,   1,  32)
       Max VN number:   0.49E-01 at (  18,   1,   1)
       Mesh    8
       Max CFL number:  0.45E+00 at (  13,   1,  14)
       Max divergence:  0.38E+00 at (  18,   1,   1)
       Min divergence: -0.29E+01 at (  18,   1,  18)
       Max div. error:  0.12E-06 at (  32,   1,   1)
       Max VN number:   0.13E+00 at (  18,   1,  18)
       Mesh    9
       Max CFL number:  0.45E+00 at (  13,   1,  14)
       Max divergence:  0.38E+00 at (  18,   1,   1)
       Min divergence: -0.29E+01 at (  18,   1,  18)
       Max div. error:  0.12E-06 at (   1,   1,   1)
       Max VN number:   0.13E+00 at (  18,   1,  18)
       Mesh   10
       Max CFL number:  0.42E+00 at (  32,   1,  19)
       Max divergence:  0.63E+00 at (  17,   1,  17)
       Min divergence: -0.27E-02 at (   3,   1,   1)
       Max div. error:  0.12E-06 at (  32,   1,   1)
       Max VN number:   0.49E-01 at (   1,   1,  18)
       Mesh   11
       Max CFL number:  0.45E+00 at (  13,   1,  14)
       Max divergence:  0.38E+00 at (  18,   1,   1)
       Min divergence: -0.29E+01 at (  18,   1,  18)
       Max div. error:  0.12E-06 at (   1,   1,   1)
       Max VN number:   0.13E+00 at (  18,   1,  18)
       Mesh   12
       Max CFL number:  0.42E+00 at (  19,   1,  32)
       Max divergence:  0.63E+00 at (  17,   1,  17)
       Min divergence: -0.27E-02 at (   3,   1,   1)
       Max div. error:  0.12E-06 at (  32,   1,  12)
       Max VN number:   0.49E-01 at (  18,   1,   1)
       Mesh   13
       Max CFL number:  0.42E+00 at (  19,   1,  32)
       Max divergence:  0.63E+00 at (  17,   1,  17)
       Min divergence: -0.27E-02 at (   1,   1,   3)
       Max div. error:  0.12E-06 at (   1,   1,  18)
       Max VN number:   0.49E-01 at (  18,   1,   1)
       Mesh   14
       Max CFL number:  0.45E+00 at (  14,   1,  13)
       Max divergence:  0.38E+00 at (   1,   1,  18)
       Min divergence: -0.29E+01 at (  18,   1,  18)
       Max div. error:  0.12E-06 at (   1,   1,  32)
       Max VN number:   0.13E+00 at (  18,   1,  18)
       Mesh   15
       Max CFL number:  0.42E+00 at (  32,   1,  19)
       Max divergence:  0.63E+00 at (  17,   1,  17)
       Min divergence: -0.27E-02 at (   1,   1,   3)
       Max div. error:  0.12E-06 at (  12,   1,  32)
       Max VN number:   0.49E-01 at (   1,   1,  18)
       Mesh   16
       Max CFL number:  0.45E+00 at (  14,   1,  13)
       Max divergence:  0.38E+00 at (   1,   1,  18)
       Min divergence: -0.29E+01 at (  18,   1,  18)
       Max div. error:  0.12E-06 at (  24,   1,  32)
       Max VN number:   0.13E+00 at (  18,   1,  18)
 
       Time Step       7   February 19, 2020  19:29:45
       Step Size:    0.602E-02 s, Total Time:       0.05 s
       Pressure Iterations:      1
       Maximum Velocity Error:  0.56E-16 on Mesh   1 at (  33   1   7)
       Maximum Pressure Error:  0.32E+01 on Mesh   1 at (  16   1  16)
       ScaRC: iterations   106, residual  0.76E-08, convergence rate   0.78E+00
       ---------------------------------------------------------------
       Mesh    1
       Max CFL number:  0.46E+00 at (  14,   1,  14)
       Max divergence:  0.44E+00 at (  18,   1,   1)
       Min divergence: -0.32E+01 at (  18,   1,  18)
       Max div. error:  0.13E-06 at (  24,   1,   1)
       Max VN number:   0.13E+00 at (  18,   1,  18)
       Mesh    2
       Max CFL number:  0.42E+00 at (  32,   1,  20)
       Max divergence:  0.73E+00 at (  17,   1,  17)
       Min divergence: -0.44E-02 at (  32,   1,   1)
       Max div. error:  0.13E-06 at (   1,   1,   1)
       Max VN number:   0.49E-01 at (  18,   1,   1)
       Mesh    3
       Max CFL number:  0.46E+00 at (  14,   1,  14)
       Max divergence:  0.44E+00 at (  18,   1,   1)
       Min divergence: -0.32E+01 at (  18,   1,  18)
       Max div. error:  0.13E-06 at (  12,   1,   1)
       Max VN number:   0.13E+00 at (  18,   1,  18)
       Mesh    4
       Max CFL number:  0.42E+00 at (  32,   1,  20)
       Max divergence:  0.73E+00 at (  17,   1,  17)
       Min divergence: -0.44E-02 at (  32,   1,   1)
       Max div. error:  0.13E-06 at (  32,   1,  14)
       Max VN number:   0.49E-01 at (  18,   1,   1)
       Mesh    5
       Max CFL number:  0.42E+00 at (  20,   1,  32)
       Max divergence:  0.73E+00 at (  17,   1,  17)
       Min divergence: -0.44E-02 at (   1,   1,  32)
       Max div. error:  0.13E-06 at (   1,   1,   1)
       Max VN number:   0.49E-01 at (   1,   1,  18)
       Mesh    6
       Max CFL number:  0.46E+00 at (  14,   1,  14)
       Max divergence:  0.44E+00 at (  18,   1,   1)
       Min divergence: -0.32E+01 at (  18,   1,  18)
       Max div. error:  0.13E-06 at (  32,   1,  32)
       Max VN number:   0.13E+00 at (  18,   1,  18)
       Mesh    7
       Max CFL number:  0.42E+00 at (  20,   1,  32)
       Max divergence:  0.73E+00 at (  17,   1,  17)
       Min divergence: -0.44E-02 at (   1,   1,  32)
       Max div. error:  0.13E-06 at (   1,   1,  32)
       Max VN number:   0.49E-01 at (  18,   1,   1)
       Mesh    8
       Max CFL number:  0.46E+00 at (  14,   1,  14)
       Max divergence:  0.44E+00 at (  18,   1,   1)
       Min divergence: -0.32E+01 at (  18,   1,  18)
       Max div. error:  0.13E-06 at (  32,   1,   5)
       Max VN number:   0.13E+00 at (  18,   1,  18)
       Mesh    9
       Max CFL number:  0.46E+00 at (  14,   1,  14)
       Max divergence:  0.44E+00 at (   1,   1,  18)
       Min divergence: -0.32E+01 at (  18,   1,  18)
       Max div. error:  0.13E-06 at (   1,   1,  12)
       Max VN number:   0.13E+00 at (  18,   1,  18)
       Mesh   10
       Max CFL number:  0.42E+00 at (  32,   1,  20)
       Max divergence:  0.73E+00 at (  17,   1,  17)
       Min divergence: -0.44E-02 at (  32,   1,   1)
       Max div. error:  0.13E-06 at (  32,   1,   1)
       Max VN number:   0.49E-01 at (   1,   1,  18)
       Mesh   11
       Max CFL number:  0.46E+00 at (  14,   1,  14)
       Max divergence:  0.44E+00 at (  18,   1,   1)
       Min divergence: -0.32E+01 at (  18,   1,  18)
       Max div. error:  0.13E-06 at (   1,   1,   1)
       Max VN number:   0.13E+00 at (  18,   1,  18)
       Mesh   12
       Max CFL number:  0.42E+00 at (  20,   1,  32)
       Max divergence:  0.73E+00 at (  17,   1,  17)
       Min divergence: -0.44E-02 at (  32,   1,   1)
       Max div. error:  0.13E-06 at (  32,   1,   1)
       Max VN number:   0.49E-01 at (   1,   1,  18)
       Mesh   13
       Max CFL number:  0.42E+00 at (  20,   1,  32)
       Max divergence:  0.73E+00 at (  17,   1,  17)
       Min divergence: -0.44E-02 at (   1,   1,  32)
       Max div. error:  0.13E-06 at (  14,   1,  32)
       Max VN number:   0.49E-01 at (   1,   1,  18)
       Mesh   14
       Max CFL number:  0.46E+00 at (  14,   1,  14)
       Max divergence:  0.44E+00 at (   1,   1,  18)
       Min divergence: -0.32E+01 at (  18,   1,  18)
       Max div. error:  0.13E-06 at (   5,   1,  32)
       Max VN number:   0.13E+00 at (  18,   1,  18)
       Mesh   15
       Max CFL number:  0.42E+00 at (  32,   1,  20)
       Max divergence:  0.73E+00 at (  17,   1,  17)
       Min divergence: -0.44E-02 at (   1,   1,  32)
       Max div. error:  0.13E-06 at (   1,   1,  32)
       Max VN number:   0.49E-01 at (  18,   1,   1)
       Mesh   16
       Max CFL number:  0.46E+00 at (  14,   1,  14)
       Max divergence:  0.44E+00 at (   1,   1,  18)
       Min divergence: -0.32E+01 at (  18,   1,  18)
       Max div. error:  0.13E-06 at (  32,   1,  20)
       Max VN number:   0.13E+00 at (  18,   1,  18)
 
       Time Step       8   February 19, 2020  19:29:45
       Step Size:    0.602E-02 s, Total Time:       0.05 s
       Pressure Iterations:      1
       Maximum Velocity Error:  0.56E-16 on Mesh   1 at (  33   1   3)
       Maximum Pressure Error:  0.35E+01 on Mesh   1 at (  17   1  17)
       ScaRC: iterations   106, residual  0.87E-08, convergence rate   0.78E+00
       ---------------------------------------------------------------
       Mesh    1
       Max CFL number:  0.47E+00 at (  14,   1,  14)
       Max divergence:  0.51E+00 at (  18,   1,   1)
       Min divergence: -0.36E+01 at (  18,   1,  18)
       Max div. error:  0.13E-06 at (   1,   1,  24)
       Max VN number:   0.12E+00 at (  18,   1,  18)
       Mesh    2
       Max CFL number:  0.43E+00 at (  32,   1,  20)
       Max divergence:  0.82E+00 at (  17,   1,  17)
       Min divergence: -0.85E-02 at (   1,   1,   4)
       Max div. error:  0.13E-06 at (   1,   1,   1)
       Max VN number:   0.50E-01 at (  18,   1,   1)
       Mesh    3
       Max CFL number:  0.47E+00 at (  14,   1,  14)
       Max divergence:  0.51E+00 at (  18,   1,   1)
       Min divergence: -0.36E+01 at (  18,   1,  18)
       Max div. error:  0.13E-06 at (  12,   1,   1)
       Max VN number:   0.12E+00 at (  18,   1,  18)
       Mesh    4
       Max CFL number:  0.43E+00 at (  32,   1,  20)
       Max divergence:  0.82E+00 at (  17,   1,  17)
       Min divergence: -0.85E-02 at (   4,   1,   1)
       Max div. error:  0.13E-06 at (  32,   1,  14)
       Max VN number:   0.50E-01 at (  18,   1,   1)
       Mesh    5
       Max CFL number:  0.43E+00 at (  20,   1,  32)
       Max divergence:  0.82E+00 at (  17,   1,  17)
       Min divergence: -0.85E-02 at (   4,   1,   1)
       Max div. error:  0.13E-06 at (   1,   1,   1)
       Max VN number:   0.50E-01 at (   1,   1,  18)
       Mesh    6
       Max CFL number:  0.47E+00 at (  14,   1,  14)
       Max divergence:  0.51E+00 at (  18,   1,   1)
       Min divergence: -0.36E+01 at (  18,   1,  18)
       Max div. error:  0.13E-06 at (  32,   1,  32)
       Max VN number:   0.12E+00 at (  18,   1,  18)
       Mesh    7
       Max CFL number:  0.43E+00 at (  20,   1,  32)
       Max divergence:  0.82E+00 at (  17,   1,  17)
       Min divergence: -0.85E-02 at (   4,   1,   1)
       Max div. error:  0.13E-06 at (   1,   1,  32)
       Max VN number:   0.50E-01 at (  18,   1,   1)
       Mesh    8
       Max CFL number:  0.47E+00 at (  14,   1,  14)
       Max divergence:  0.51E+00 at (  18,   1,   1)
       Min divergence: -0.36E+01 at (  18,   1,  18)
       Max div. error:  0.13E-06 at (  32,   1,   5)
       Max VN number:   0.12E+00 at (  18,   1,  18)
       Mesh    9
       Max CFL number:  0.47E+00 at (  14,   1,  14)
       Max divergence:  0.51E+00 at (   1,   1,  18)
       Min divergence: -0.36E+01 at (  18,   1,  18)
       Max div. error:  0.13E-06 at (   1,   1,  12)
       Max VN number:   0.12E+00 at (  18,   1,  18)
       Mesh   10
       Max CFL number:  0.43E+00 at (  32,   1,  20)
       Max divergence:  0.82E+00 at (  17,   1,  17)
       Min divergence: -0.85E-02 at (   1,   1,   4)
       Max div. error:  0.13E-06 at (  32,   1,   1)
       Max VN number:   0.50E-01 at (   1,   1,  18)
       Mesh   11
       Max CFL number:  0.47E+00 at (  14,   1,  14)
       Max divergence:  0.51E+00 at (   1,   1,  18)
       Min divergence: -0.36E+01 at (  18,   1,  18)
       Max div. error:  0.13E-06 at (   1,   1,   1)
       Max VN number:   0.12E+00 at (  18,   1,  18)
       Mesh   12
       Max CFL number:  0.43E+00 at (  20,   1,  32)
       Max divergence:  0.82E+00 at (  17,   1,  17)
       Min divergence: -0.85E-02 at (   1,   1,   4)
       Max div. error:  0.13E-06 at (  32,   1,   1)
       Max VN number:   0.50E-01 at (   1,   1,  18)
       Mesh   13
       Max CFL number:  0.43E+00 at (  20,   1,  32)
       Max divergence:  0.82E+00 at (  17,   1,  17)
       Min divergence: -0.85E-02 at (   1,   1,   4)
       Max div. error:  0.13E-06 at (  14,   1,  32)
       Max VN number:   0.50E-01 at (   1,   1,  18)
       Mesh   14
       Max CFL number:  0.47E+00 at (  14,   1,  14)
       Max divergence:  0.51E+00 at (   1,   1,  18)
       Min divergence: -0.36E+01 at (  18,   1,  18)
       Max div. error:  0.13E-06 at (   5,   1,  32)
       Max VN number:   0.12E+00 at (  18,   1,  18)
       Mesh   15
       Max CFL number:  0.43E+00 at (  32,   1,  20)
       Max divergence:  0.82E+00 at (  17,   1,  17)
       Min divergence: -0.85E-02 at (   4,   1,   1)
       Max div. error:  0.13E-06 at (   1,   1,  32)
       Max VN number:   0.50E-01 at (  18,   1,   1)
       Mesh   16
       Max CFL number:  0.47E+00 at (  14,   1,  14)
       Max divergence:  0.51E+00 at (   1,   1,  18)
       Min divergence: -0.36E+01 at (  18,   1,  18)
       Max div. error:  0.13E-06 at (  32,   1,  20)
       Max VN number:   0.12E+00 at (  18,   1,  18)
 
       Time Step       9   February 19, 2020  19:29:45
       Step Size:    0.602E-02 s, Total Time:       0.06 s
       Pressure Iterations:      1
       Maximum Velocity Error:  0.11E-15 on Mesh   3 at (  22   1   0)
       Maximum Pressure Error:  0.37E+01 on Mesh  14 at (  17   1  17)
       ScaRC: iterations   106, residual  0.99E-08, convergence rate   0.78E+00
       ---------------------------------------------------------------
       Mesh    1
       Max CFL number:  0.47E+00 at (  14,   1,  14)
       Max divergence:  0.57E+00 at (   1,   1,  18)
       Min divergence: -0.39E+01 at (  18,   1,  18)
       Max div. error:  0.14E-06 at (   1,   1,  24)
       Max VN number:   0.12E+00 at (  18,   1,  18)
       Mesh    2
       Max CFL number:  0.43E+00 at (  21,   1,  32)
       Max divergence:  0.92E+00 at (  17,   1,  17)
       Min divergence: -0.13E-01 at (  32,   1,   1)
       Max div. error:  0.14E-06 at (   1,   1,   1)
       Max VN number:   0.50E-01 at (  18,   1,   1)
       Mesh    3
       Max CFL number:  0.47E+00 at (  14,   1,  14)
       Max divergence:  0.57E+00 at (  18,   1,   1)
       Min divergence: -0.39E+01 at (  18,   1,  18)
       Max div. error:  0.14E-06 at (  12,   1,   1)
       Max VN number:   0.12E+00 at (  18,   1,  18)
       Mesh    4
       Max CFL number:  0.43E+00 at (  32,   1,  21)
       Max divergence:  0.92E+00 at (  17,   1,  17)
       Min divergence: -0.13E-01 at (  32,   1,   1)
       Max div. error:  0.14E-06 at (  32,   1,  14)
       Max VN number:   0.50E-01 at (  18,   1,   1)
       Mesh    5
       Max CFL number:  0.43E+00 at (  32,   1,  21)
       Max divergence:  0.92E+00 at (  17,   1,  17)
       Min divergence: -0.13E-01 at (   1,   1,  32)
       Max div. error:  0.14E-06 at (   1,   1,   1)
       Max VN number:   0.50E-01 at (   1,   1,  18)
       Mesh    6
       Max CFL number:  0.47E+00 at (  14,   1,  14)
       Max divergence:  0.57E+00 at (   1,   1,  18)
       Min divergence: -0.39E+01 at (  18,   1,  18)
       Max div. error:  0.14E-06 at (  32,   1,  32)
       Max VN number:   0.12E+00 at (  18,   1,  18)
       Mesh    7
       Max CFL number:  0.43E+00 at (  32,   1,  21)
       Max divergence:  0.92E+00 at (  17,   1,  17)
       Min divergence: -0.13E-01 at (   1,   1,  32)
       Max div. error:  0.14E-06 at (   1,   1,  32)
       Max VN number:   0.50E-01 at (   1,   1,  18)
       Mesh    8
       Max CFL number:  0.47E+00 at (  14,   1,  14)
       Max divergence:  0.57E+00 at (  18,   1,   1)
       Min divergence: -0.39E+01 at (  18,   1,  18)
       Max div. error:  0.14E-06 at (  32,   1,   5)
       Max VN number:   0.12E+00 at (  18,   1,  18)
       Mesh    9
       Max CFL number:  0.47E+00 at (  14,   1,  14)
       Max divergence:  0.57E+00 at (   1,   1,  18)
       Min divergence: -0.39E+01 at (  18,   1,  18)
       Max div. error:  0.14E-06 at (   1,   1,  12)
       Max VN number:   0.12E+00 at (  18,   1,  18)
       Mesh   10
       Max CFL number:  0.43E+00 at (  21,   1,  32)
       Max divergence:  0.92E+00 at (  17,   1,  17)
       Min divergence: -0.13E-01 at (  32,   1,   1)
       Max div. error:  0.14E-06 at (  32,   1,   1)
       Max VN number:   0.50E-01 at (   1,   1,  18)
       Mesh   11
       Max CFL number:  0.47E+00 at (  14,   1,  14)
       Max divergence:  0.57E+00 at (  18,   1,   1)
       Min divergence: -0.39E+01 at (  18,   1,  18)
       Max div. error:  0.14E-06 at (   1,   1,   1)
       Max VN number:   0.12E+00 at (  18,   1,  18)
       Mesh   12
       Max CFL number:  0.43E+00 at (  21,   1,  32)
       Max divergence:  0.92E+00 at (  17,   1,  17)
       Min divergence: -0.13E-01 at (  32,   1,   1)
       Max div. error:  0.14E-06 at (  32,   1,   1)
       Max VN number:   0.50E-01 at (   1,   1,  18)
       Mesh   13
       Max CFL number:  0.43E+00 at (  21,   1,  32)
       Max divergence:  0.92E+00 at (  17,   1,  17)
       Min divergence: -0.13E-01 at (   1,   1,  32)
       Max div. error:  0.14E-06 at (  14,   1,  32)
       Max VN number:   0.50E-01 at (   1,   1,  18)
       Mesh   14
       Max CFL number:  0.47E+00 at (  14,   1,  14)
       Max divergence:  0.57E+00 at (   1,   1,  18)
       Min divergence: -0.39E+01 at (  18,   1,  18)
       Max div. error:  0.14E-06 at (   5,   1,  32)
       Max VN number:   0.12E+00 at (  18,   1,  18)
       Mesh   15
       Max CFL number:  0.43E+00 at (  32,   1,  21)
       Max divergence:  0.92E+00 at (  17,   1,  17)
       Min divergence: -0.13E-01 at (   1,   1,  32)
       Max div. error:  0.14E-06 at (   1,   1,  32)
       Max VN number:   0.50E-01 at (  18,   1,   1)
       Mesh   16
       Max CFL number:  0.47E+00 at (  14,   1,  14)
       Max divergence:  0.57E+00 at (  18,   1,   1)
       Min divergence: -0.39E+01 at (  18,   1,  18)
       Max div. error:  0.14E-06 at (  32,   1,  20)
       Max VN number:   0.12E+00 at (  18,   1,  18)
 
       Time Step      10   February 19, 2020  19:29:45
       Step Size:    0.602E-02 s, Total Time:       0.06 s
       Pressure Iterations:      1
       Maximum Velocity Error:  0.56E-16 on Mesh   1 at (  33   1   3)
       Maximum Pressure Error:  0.37E+01 on Mesh   1 at (  17   1  17)
       ScaRC: iterations   107, residual  0.56E-08, convergence rate   0.78E+00
       ---------------------------------------------------------------
       Mesh    1
       Max CFL number:  0.48E+00 at (  14,   1,  14)
       Max divergence:  0.64E+00 at (   1,   1,  19)
       Min divergence: -0.42E+01 at (  19,   1,  19)
       Max div. error:  0.14E-06 at (  13,   1,   1)
       Max VN number:   0.12E+00 at (  18,   1,  18)
       Mesh    2
       Max CFL number:  0.43E+00 at (  21,   1,  32)
       Max divergence:  0.10E+01 at (  18,   1,  18)
       Min divergence: -0.20E-01 at (   1,   1,  32)
       Max div. error:  0.14E-06 at (   1,   1,  32)
       Max VN number:   0.51E-01 at (  18,   1,   1)
       Mesh    3
       Max CFL number:  0.48E+00 at (  14,   1,  14)
       Max divergence:  0.64E+00 at (   1,   1,  19)
       Min divergence: -0.42E+01 at (  19,   1,  19)
       Max div. error:  0.14E-06 at (   1,   1,  32)
       Max VN number:   0.12E+00 at (  18,   1,  18)
       Mesh    4
       Max CFL number:  0.43E+00 at (  32,   1,  21)
       Max divergence:  0.10E+01 at (  18,   1,  18)
       Min divergence: -0.20E-01 at (   1,   1,  32)
       Max div. error:  0.14E-06 at (   2,   1,   1)
       Max VN number:   0.51E-01 at (  18,   1,   1)
       Mesh    5
       Max CFL number:  0.43E+00 at (  32,   1,  21)
       Max divergence:  0.10E+01 at (  18,   1,  18)
       Min divergence: -0.20E-01 at (  32,   1,   1)
       Max div. error:  0.14E-06 at (  32,   1,   1)
       Max VN number:   0.51E-01 at (   1,   1,  18)
       Mesh    6
       Max CFL number:  0.48E+00 at (  14,   1,  14)
       Max divergence:  0.64E+00 at (  19,   1,   1)
       Min divergence: -0.42E+01 at (  19,   1,  19)
       Max div. error:  0.14E-06 at (  32,   1,  32)
       Max VN number:   0.12E+00 at (  18,   1,  18)
       Mesh    7
       Max CFL number:  0.43E+00 at (  32,   1,  21)
       Max divergence:  0.10E+01 at (  18,   1,  18)
       Min divergence: -0.20E-01 at (   1,   1,  32)
       Max div. error:  0.14E-06 at (   1,   1,  32)
       Max VN number:   0.51E-01 at (  18,   1,   1)
       Mesh    8
       Max CFL number:  0.48E+00 at (  14,   1,  14)
       Max divergence:  0.64E+00 at (  19,   1,   1)
       Min divergence: -0.42E+01 at (  19,   1,  19)
       Max div. error:  0.14E-06 at (  32,   1,   8)
       Max VN number:   0.12E+00 at (  18,   1,  18)
       Mesh    9
       Max CFL number:  0.48E+00 at (  14,   1,  14)
       Max divergence:  0.64E+00 at (  19,   1,   1)
       Min divergence: -0.42E+01 at (  19,   1,  19)
       Max div. error:  0.14E-06 at (   1,   1,   5)
       Max VN number:   0.12E+00 at (  18,   1,  18)
       Mesh   10
       Max CFL number:  0.43E+00 at (  21,   1,  32)
       Max divergence:  0.10E+01 at (  18,   1,  18)
       Min divergence: -0.20E-01 at (  32,   1,   1)
       Max div. error:  0.14E-06 at (  32,   1,   1)
       Max VN number:   0.51E-01 at (   1,   1,  18)
       Mesh   11
       Max CFL number:  0.48E+00 at (  14,   1,  14)
       Max divergence:  0.64E+00 at (   1,   1,  19)
       Min divergence: -0.42E+01 at (  19,   1,  19)
       Max div. error:  0.14E-06 at (   1,   1,   1)
       Max VN number:   0.12E+00 at (  18,   1,  18)
       Mesh   12
       Max CFL number:  0.43E+00 at (  21,   1,  32)
       Max divergence:  0.10E+01 at (  18,   1,  18)
       Min divergence: -0.20E-01 at (   1,   1,  32)
       Max div. error:  0.14E-06 at (  32,   1,   3)
       Max VN number:   0.51E-01 at (   1,   1,  18)
       Mesh   13
       Max CFL number:  0.43E+00 at (  21,   1,  32)
       Max divergence:  0.10E+01 at (  18,   1,  18)
       Min divergence: -0.20E-01 at (  32,   1,   1)
       Max div. error:  0.14E-06 at (   1,   1,   2)
       Max VN number:   0.51E-01 at (   1,   1,  18)
       Mesh   14
       Max CFL number:  0.48E+00 at (  14,   1,  14)
       Max divergence:  0.64E+00 at (   1,   1,  19)
       Min divergence: -0.42E+01 at (  19,   1,  19)
       Max div. error:  0.14E-06 at (   8,   1,  32)
       Max VN number:   0.12E+00 at (  18,   1,  18)
       Mesh   15
       Max CFL number:  0.43E+00 at (  32,   1,  21)
       Max divergence:  0.10E+01 at (  18,   1,  18)
       Min divergence: -0.20E-01 at (  32,   1,   1)
       Max div. error:  0.14E-06 at (   3,   1,  32)
       Max VN number:   0.51E-01 at (  18,   1,   1)
       Mesh   16
       Max CFL number:  0.48E+00 at (  14,   1,  14)
       Max divergence:  0.64E+00 at (  19,   1,   1)
       Min divergence: -0.42E+01 at (  19,   1,  19)
       Max div. error:  0.14E-06 at (  20,   1,  32)
       Max VN number:   0.12E+00 at (  18,   1,  18)
 
       Time Step      20   February 19, 2020  19:29:46
       Step Size:    0.541E-02 s, Total Time:       0.12 s
       Pressure Iterations:      1
       Maximum Velocity Error:  0.11E-15 on Mesh   1 at (   0   1  12)
       Maximum Pressure Error:  0.20E+01 on Mesh  11 at (  22   1  18)
       ScaRC: iterations   108, residual  0.74E-08, convergence rate   0.77E+00
       ---------------------------------------------------------------
       Mesh    1
       Max CFL number:  0.48E+00 at (  15,   1,  15)
       Max divergence:  0.13E+01 at (   1,   1,  20)
       Min divergence: -0.55E+01 at (  20,   1,  20)
       Max div. error:  0.77E-07 at (  32,   1,  32)
       Max VN number:   0.80E-01 at (  20,   1,  20)
       Mesh    2
       Max CFL number:  0.42E+00 at (  32,   1,  25)
       Max divergence:  0.19E+01 at (  20,   1,  20)
       Min divergence: -0.29E+00 at (  28,   1,   1)
       Max div. error:  0.77E-07 at (   8,   1,   1)
       Max VN number:   0.49E-01 at (  20,   1,   1)
       Mesh    3
       Max CFL number:  0.48E+00 at (  15,   1,  15)
       Max divergence:  0.13E+01 at (  20,   1,   1)
       Min divergence: -0.55E+01 at (  20,   1,  20)
       Max div. error:  0.77E-07 at (  32,   1,  32)
       Max VN number:   0.80E-01 at (  20,   1,  20)
       Mesh    4
       Max CFL number:  0.42E+00 at (  32,   1,  25)
       Max divergence:  0.19E+01 at (  20,   1,  20)
       Min divergence: -0.29E+00 at (  28,   1,   1)
       Max div. error:  0.77E-07 at (  32,   1,  13)
       Max VN number:   0.49E-01 at (   1,   1,  20)
       Mesh    5
       Max CFL number:  0.42E+00 at (  25,   1,  32)
       Max divergence:  0.19E+01 at (  20,   1,  20)
       Min divergence: -0.29E+00 at (   1,   1,  28)
       Max div. error:  0.77E-07 at (   1,   1,   8)
       Max VN number:   0.49E-01 at (   1,   1,  20)
       Mesh    6
       Max CFL number:  0.48E+00 at (  15,   1,  15)
       Max divergence:  0.13E+01 at (  20,   1,   1)
       Min divergence: -0.55E+01 at (  20,   1,  20)
       Max div. error:  0.77E-07 at (   1,   1,   1)
       Max VN number:   0.80E-01 at (  20,   1,  20)
       Mesh    7
       Max CFL number:  0.42E+00 at (  25,   1,  32)
       Max divergence:  0.19E+01 at (  20,   1,  20)
       Min divergence: -0.29E+00 at (   1,   1,  28)
       Max div. error:  0.77E-07 at (   1,   1,  32)
       Max VN number:   0.49E-01 at (  20,   1,   1)
       Mesh    8
       Max CFL number:  0.48E+00 at (  15,   1,  15)
       Max divergence:  0.13E+01 at (  20,   1,   1)
       Min divergence: -0.55E+01 at (  20,   1,  20)
       Max div. error:  0.77E-07 at (   1,   1,   1)
       Max VN number:   0.80E-01 at (  20,   1,  20)
       Mesh    9
       Max CFL number:  0.48E+00 at (  15,   1,  15)
       Max divergence:  0.13E+01 at (   1,   1,  20)
       Min divergence: -0.55E+01 at (  20,   1,  20)
       Max div. error:  0.77E-07 at (  32,   1,  32)
       Max VN number:   0.80E-01 at (  20,   1,  20)
       Mesh   10
       Max CFL number:  0.42E+00 at (  32,   1,  25)
       Max divergence:  0.19E+01 at (  20,   1,  20)
       Min divergence: -0.29E+00 at (  28,   1,   1)
       Max div. error:  0.77E-07 at (  32,   1,   1)
       Max VN number:   0.49E-01 at (   1,   1,  20)
       Mesh   11
       Max CFL number:  0.48E+00 at (  15,   1,  15)
       Max divergence:  0.13E+01 at (   1,   1,  20)
       Min divergence: -0.55E+01 at (  20,   1,  20)
       Max div. error:  0.77E-07 at (  32,   1,  32)
       Max VN number:   0.80E-01 at (  20,   1,  20)
       Mesh   12
       Max CFL number:  0.42E+00 at (  32,   1,  25)
       Max divergence:  0.19E+01 at (  20,   1,  20)
       Min divergence: -0.29E+00 at (  28,   1,   1)
       Max div. error:  0.77E-07 at (  32,   1,   4)
       Max VN number:   0.49E-01 at (   1,   1,  20)
       Mesh   13
       Max CFL number:  0.42E+00 at (  25,   1,  32)
       Max divergence:  0.19E+01 at (  20,   1,  20)
       Min divergence: -0.29E+00 at (   1,   1,  28)
       Max div. error:  0.77E-07 at (  13,   1,  32)
       Max VN number:   0.49E-01 at (  20,   1,   1)
       Mesh   14
       Max CFL number:  0.48E+00 at (  15,   1,  15)
       Max divergence:  0.13E+01 at (   1,   1,  20)
       Min divergence: -0.55E+01 at (  20,   1,  20)
       Max div. error:  0.77E-07 at (   1,   1,   1)
       Max VN number:   0.80E-01 at (  20,   1,  20)
       Mesh   15
       Max CFL number:  0.42E+00 at (  25,   1,  32)
       Max divergence:  0.19E+01 at (  20,   1,  20)
       Min divergence: -0.29E+00 at (   1,   1,  28)
       Max div. error:  0.77E-07 at (   4,   1,  32)
       Max VN number:   0.49E-01 at (  20,   1,   1)
       Mesh   16
       Max CFL number:  0.48E+00 at (  15,   1,  15)
       Max divergence:  0.13E+01 at (  20,   1,   1)
       Min divergence: -0.55E+01 at (  20,   1,  20)
       Max div. error:  0.77E-07 at (  32,   1,  19)
       Max VN number:   0.80E-01 at (  20,   1,  20)
 
       Time Step      30   February 19, 2020  19:29:47
       Step Size:    0.541E-02 s, Total Time:       0.17 s
       Pressure Iterations:      1
       Maximum Velocity Error:  0.11E-15 on Mesh   1 at (   0   1  28)
       Maximum Pressure Error:  0.11E+01 on Mesh   6 at (  24   1  24)
       ScaRC: iterations   109, residual  0.97E-08, convergence rate   0.77E+00
       ---------------------------------------------------------------
       Mesh    1
       Max CFL number:  0.49E+00 at (  16,   1,  16)
       Max divergence:  0.19E+01 at (   1,   1,  22)
       Min divergence: -0.54E+01 at (  22,   1,  22)
       Max div. error:  0.11E-07 at (  21,   1,   1)
       Max VN number:   0.60E-01 at (  23,   1,  23)
       Mesh    2
       Max CFL number:  0.45E+00 at (  28,   1,  32)
       Max divergence:  0.28E+01 at (  22,   1,  22)
       Min divergence: -0.15E+01 at (  22,   1,   1)
       Max div. error:  0.11E-07 at (  26,   1,   1)
       Max VN number:   0.49E-01 at (   1,   1,  22)
       Mesh    3
       Max CFL number:  0.49E+00 at (  16,   1,  16)
       Max divergence:  0.19E+01 at (   1,   1,  22)
       Min divergence: -0.54E+01 at (  22,   1,  22)
       Max div. error:  0.11E-07 at (   1,   1,  17)
       Max VN number:   0.60E-01 at (  23,   1,  23)
       Mesh    4
       Max CFL number:  0.45E+00 at (  28,   1,  32)
       Max divergence:  0.28E+01 at (  22,   1,  22)
       Min divergence: -0.15E+01 at (  22,   1,   1)
       Max div. error:  0.11E-07 at (  19,   1,   1)
       Max VN number:   0.49E-01 at (   1,   1,  22)
       Mesh    5
       Max CFL number:  0.45E+00 at (  32,   1,  28)
       Max divergence:  0.28E+01 at (  22,   1,  22)
       Min divergence: -0.15E+01 at (   1,   1,  22)
       Max div. error:  0.11E-07 at (   1,   1,  26)
       Max VN number:   0.49E-01 at (  22,   1,   1)
       Mesh    6
       Max CFL number:  0.49E+00 at (  16,   1,  16)
       Max divergence:  0.19E+01 at (   1,   1,  22)
       Min divergence: -0.54E+01 at (  22,   1,  22)
       Max div. error:  0.11E-07 at (  16,   1,  32)
       Max VN number:   0.60E-01 at (  23,   1,  23)
       Mesh    7
       Max CFL number:  0.45E+00 at (  28,   1,  32)
       Max divergence:  0.28E+01 at (  22,   1,  22)
       Min divergence: -0.15E+01 at (   1,   1,  22)
       Max div. error:  0.11E-07 at (   8,   1,  32)
       Max VN number:   0.49E-01 at (   1,   1,  22)
       Mesh    8
       Max CFL number:  0.49E+00 at (  16,   1,  16)
       Max divergence:  0.19E+01 at (  22,   1,   1)
       Min divergence: -0.54E+01 at (  22,   1,  22)
       Max div. error:  0.11E-07 at (  32,   1,  13)
       Max VN number:   0.60E-01 at (  23,   1,  23)
       Mesh    9
       Max CFL number:  0.49E+00 at (  16,   1,  16)
       Max divergence:  0.19E+01 at (  22,   1,   1)
       Min divergence: -0.54E+01 at (  22,   1,  22)
       Max div. error:  0.11E-07 at (  17,   1,   1)
       Max VN number:   0.60E-01 at (  23,   1,  23)
       Mesh   10
       Max CFL number:  0.45E+00 at (  28,   1,  32)
       Max divergence:  0.28E+01 at (  22,   1,  22)
       Min divergence: -0.15E+01 at (  22,   1,   1)
       Max div. error:  0.11E-07 at (  32,   1,   8)
       Max VN number:   0.49E-01 at (  22,   1,   1)
       Mesh   11
       Max CFL number:  0.49E+00 at (  16,   1,  16)
       Max divergence:  0.19E+01 at (  22,   1,   1)
       Min divergence: -0.54E+01 at (  22,   1,  22)
       Max div. error:  0.11E-07 at (  32,   1,  32)
       Max VN number:   0.60E-01 at (  23,   1,  23)
       Mesh   12
       Max CFL number:  0.45E+00 at (  32,   1,  28)
       Max divergence:  0.28E+01 at (  22,   1,  22)
       Min divergence: -0.15E+01 at (   1,   1,  22)
       Max div. error:  0.11E-07 at (  32,   1,  12)
       Max VN number:   0.49E-01 at (  22,   1,   1)
       Mesh   13
       Max CFL number:  0.45E+00 at (  32,   1,  28)
       Max divergence:  0.28E+01 at (  22,   1,  22)
       Min divergence: -0.15E+01 at (   1,   1,  22)
       Max div. error:  0.11E-07 at (   1,   1,  19)
       Max VN number:   0.49E-01 at (  22,   1,   1)
       Mesh   14
       Max CFL number:  0.49E+00 at (  16,   1,  16)
       Max divergence:  0.19E+01 at (   1,   1,  22)
       Min divergence: -0.54E+01 at (  22,   1,  22)
       Max div. error:  0.11E-07 at (  13,   1,  32)
       Max VN number:   0.60E-01 at (  23,   1,  23)
       Mesh   15
       Max CFL number:  0.45E+00 at (  28,   1,  32)
       Max divergence:  0.28E+01 at (  22,   1,  22)
       Min divergence: -0.15E+01 at (  22,   1,   1)
       Max div. error:  0.11E-07 at (  11,   1,  32)
       Max VN number:   0.49E-01 at (   1,   1,  22)
       Mesh   16
       Max CFL number:  0.49E+00 at (  16,   1,  16)
       Max divergence:  0.19E+01 at (   1,   1,  22)
       Min divergence: -0.54E+01 at (  22,   1,  22)
       Max div. error:  0.11E-07 at (  32,   1,  18)
       Max VN number:   0.60E-01 at (  23,   1,  23)
 
       Time Step      40   February 19, 2020  19:29:48
       Step Size:    0.541E-02 s, Total Time:       0.23 s
       Pressure Iterations:      1
       Maximum Velocity Error:  0.11E-15 on Mesh   1 at (  20   1   0)
       Maximum Pressure Error:  0.49E+00 on Mesh   3 at (  21   1  27)
       ScaRC: iterations   110, residual  0.70E-08, convergence rate   0.77E+00
       ---------------------------------------------------------------
       Mesh    1
       Max CFL number:  0.49E+00 at (  17,   1,  17)
       Max divergence:  0.25E+01 at (  24,   1,   1)
       Min divergence: -0.46E+01 at (  24,   1,  24)
       Max div. error:  0.55E-07 at (  10,   1,  32)
       Max VN number:   0.46E-01 at (  26,   1,  26)
       Mesh    2
       Max CFL number:  0.47E+00 at (  31,   1,  32)
       Max divergence:  0.38E+01 at (  24,   1,  24)
       Min divergence: -0.26E+01 at (  24,   1,   1)
       Max div. error:  0.55E-07 at (  32,   1,  15)
       Max VN number:   0.44E-01 at (   1,   1,  26)
       Mesh    3
       Max CFL number:  0.49E+00 at (  17,   1,  17)
       Max divergence:  0.25E+01 at (  24,   1,   1)
       Min divergence: -0.46E+01 at (  24,   1,  24)
       Max div. error:  0.55E-07 at (  23,   1,   1)
       Max VN number:   0.46E-01 at (  26,   1,  26)
       Mesh    4
       Max CFL number:  0.47E+00 at (  31,   1,  32)
       Max divergence:  0.38E+01 at (  24,   1,  24)
       Min divergence: -0.26E+01 at (   1,   1,  24)
       Max div. error:  0.55E-07 at (  32,   1,  13)
       Max VN number:   0.44E-01 at (   1,   1,  26)
       Mesh    5
       Max CFL number:  0.47E+00 at (  32,   1,  31)
       Max divergence:  0.38E+01 at (  24,   1,  24)
       Min divergence: -0.26E+01 at (   1,   1,  24)
       Max div. error:  0.55E-07 at (   8,   1,   1)
       Max VN number:   0.44E-01 at (  26,   1,   1)
       Mesh    6
       Max CFL number:  0.49E+00 at (  17,   1,  17)
       Max divergence:  0.25E+01 at (  24,   1,   1)
       Min divergence: -0.46E+01 at (  24,   1,  24)
       Max div. error:  0.55E-07 at (  24,   1,   1)
       Max VN number:   0.46E-01 at (  26,   1,  26)
       Mesh    7
       Max CFL number:  0.47E+00 at (  32,   1,  31)
       Max divergence:  0.38E+01 at (  24,   1,  24)
       Min divergence: -0.26E+01 at (  24,   1,   1)
       Max div. error:  0.55E-07 at (  10,   1,   1)
       Max VN number:   0.44E-01 at (   1,   1,  26)
       Mesh    8
       Max CFL number:  0.49E+00 at (  17,   1,  17)
       Max divergence:  0.25E+01 at (   1,   1,  24)
       Min divergence: -0.46E+01 at (  24,   1,  24)
       Max div. error:  0.55E-07 at (  32,   1,  26)
       Max VN number:   0.46E-01 at (  26,   1,  26)
       Mesh    9
       Max CFL number:  0.49E+00 at (  17,   1,  17)
       Max divergence:  0.25E+01 at (   1,   1,  24)
       Min divergence: -0.46E+01 at (  24,   1,  24)
       Max div. error:  0.55E-07 at (   1,   1,  23)
       Max VN number:   0.46E-01 at (  26,   1,  26)
       Mesh   10
       Max CFL number:  0.47E+00 at (  31,   1,  32)
       Max divergence:  0.38E+01 at (  24,   1,  24)
       Min divergence: -0.26E+01 at (   1,   1,  24)
       Max div. error:  0.55E-07 at (   1,   1,  11)
       Max VN number:   0.44E-01 at (  26,   1,   1)
       Mesh   11
       Max CFL number:  0.49E+00 at (  17,   1,  17)
       Max divergence:  0.25E+01 at (   1,   1,  24)
       Min divergence: -0.46E+01 at (  24,   1,  24)
       Max div. error:  0.55E-07 at (  32,   1,  11)
       Max VN number:   0.46E-01 at (  26,   1,  26)
       Mesh   12
       Max CFL number:  0.47E+00 at (  31,   1,  32)
       Max divergence:  0.38E+01 at (  24,   1,  24)
       Min divergence: -0.26E+01 at (   1,   1,  24)
       Max div. error:  0.55E-07 at (   1,   1,   8)
       Max VN number:   0.44E-01 at (  26,   1,   1)
       Mesh   13
       Max CFL number:  0.47E+00 at (  32,   1,  31)
       Max divergence:  0.38E+01 at (  24,   1,  24)
       Min divergence: -0.26E+01 at (  24,   1,   1)
       Max div. error:  0.55E-07 at (  15,   1,  32)
       Max VN number:   0.44E-01 at (  26,   1,   1)
       Mesh   14
       Max CFL number:  0.49E+00 at (  17,   1,  17)
       Max divergence:  0.25E+01 at (  24,   1,   1)
       Min divergence: -0.46E+01 at (  24,   1,  24)
       Max div. error:  0.55E-07 at (  25,   1,  32)
       Max VN number:   0.46E-01 at (  26,   1,  26)
       Mesh   15
       Max CFL number:  0.47E+00 at (  32,   1,  31)
       Max divergence:  0.38E+01 at (  24,   1,  24)
       Min divergence: -0.26E+01 at (  24,   1,   1)
       Max div. error:  0.55E-07 at (   8,   1,   1)
       Max VN number:   0.44E-01 at (   1,   1,  26)
       Mesh   16
       Max CFL number:  0.49E+00 at (  17,   1,  17)
       Max divergence:  0.25E+01 at (   1,   1,  24)
       Min divergence: -0.46E+01 at (  24,   1,  24)
       Max div. error:  0.55E-07 at (  32,   1,  19)
       Max VN number:   0.46E-01 at (  26,   1,  26)
 
       Time Step      50   February 19, 2020  19:29:49
       Step Size:    0.541E-02 s, Total Time:       0.28 s
       Pressure Iterations:      1
       Maximum Velocity Error:  0.11E-15 on Mesh   1 at (   0   1  17)
       Maximum Pressure Error:  0.35E+00 on Mesh  12 at (  24   1  24)
       ScaRC: iterations   110, residual  0.90E-08, convergence rate   0.77E+00
       ---------------------------------------------------------------
       Mesh    1
       Max CFL number:  0.49E+00 at (   1,   1,  32)
       Max divergence:  0.32E+01 at (   1,   1,  26)
       Min divergence: -0.36E+01 at (  26,   1,  26)
       Max div. error:  0.61E-07 at (  26,   1,  32)
       Max VN number:   0.46E-01 at (  25,   1,   1)
       Mesh    2
       Max CFL number:  0.49E+00 at (  32,   1,  32)
       Max divergence:  0.47E+01 at (  26,   1,  26)
       Min divergence: -0.29E+01 at (  26,   1,   1)
       Max div. error:  0.61E-07 at (   1,   1,  32)
       Max VN number:   0.48E-01 at (  25,   1,  25)
       Mesh    3
       Max CFL number:  0.49E+00 at (   1,   1,  32)
       Max divergence:  0.32E+01 at (   1,   1,  26)
       Min divergence: -0.36E+01 at (  26,   1,  26)
       Max div. error:  0.61E-07 at (  23,   1,   1)
       Max VN number:   0.46E-01 at (  25,   1,   1)
       Mesh    4
       Max CFL number:  0.49E+00 at (  32,   1,  32)
       Max divergence:  0.47E+01 at (  26,   1,  26)
       Min divergence: -0.29E+01 at (  26,   1,   1)
       Max div. error:  0.61E-07 at (  32,   1,  13)
       Max VN number:   0.48E-01 at (  25,   1,  25)
       Mesh    5
       Max CFL number:  0.49E+00 at (  32,   1,  32)
       Max divergence:  0.47E+01 at (  26,   1,  26)
       Min divergence: -0.29E+01 at (   1,   1,  26)
       Max div. error:  0.61E-07 at (  32,   1,   1)
       Max VN number:   0.48E-01 at (  25,   1,  25)
       Mesh    6
       Max CFL number:  0.49E+00 at (  32,   1,   1)
       Max divergence:  0.32E+01 at (  26,   1,   1)
       Min divergence: -0.36E+01 at (  26,   1,  26)
       Max div. error:  0.61E-07 at (   1,   1,  32)
       Max VN number:   0.46E-01 at (   1,   1,  25)
       Mesh    7
       Max CFL number:  0.49E+00 at (  32,   1,  32)
       Max divergence:  0.47E+01 at (  26,   1,  26)
       Min divergence: -0.29E+01 at (   1,   1,  26)
       Max div. error:  0.61E-07 at (  32,   1,   1)
       Max VN number:   0.48E-01 at (  25,   1,  25)
       Mesh    8
       Max CFL number:  0.49E+00 at (   1,   1,  32)
       Max divergence:  0.32E+01 at (   1,   1,  26)
       Min divergence: -0.36E+01 at (  26,   1,  26)
       Max div. error:  0.61E-07 at (  32,   1,   6)
       Max VN number:   0.46E-01 at (  25,   1,   1)
       Mesh    9
       Max CFL number:  0.49E+00 at (  32,   1,   1)
       Max divergence:  0.32E+01 at (  26,   1,   1)
       Min divergence: -0.36E+01 at (  26,   1,  26)
       Max div. error:  0.61E-07 at (   1,   1,  23)
       Max VN number:   0.46E-01 at (   1,   1,  25)
       Mesh   10
       Max CFL number:  0.49E+00 at (  32,   1,  32)
       Max divergence:  0.47E+01 at (  26,   1,  26)
       Min divergence: -0.29E+01 at (  26,   1,   1)
       Max div. error:  0.61E-07 at (   1,   1,  32)
       Max VN number:   0.48E-01 at (  25,   1,  25)
       Mesh   11
       Max CFL number:  0.49E+00 at (  32,   1,   1)
       Max divergence:  0.32E+01 at (   1,   1,  26)
[...]
       Mesh   11
       Max CFL number:  0.47E+00 at (   3,   1,  32)
       Max divergence:  0.43E+01 at (  29,   1,   1)
       Min divergence: -0.18E+01 at (  29,   1,  29)
       Max div. error:  0.34E-07 at (  32,   1,   1)
       Max VN number:   0.79E-01 at (  29,   1,   1)
       Mesh   12
       Max CFL number:  0.47E+00 at (   2,   1,   2)
       Max divergence:  0.55E+01 at (  29,   1,  29)
       Min divergence: -0.17E+01 at (   1,   1,  29)
       Max div. error:  0.34E-07 at (  32,   1,  28)
       Max VN number:   0.85E-01 at (  29,   1,  29)
       Mesh   13
       Max CFL number:  0.47E+00 at (   2,   1,   2)
       Max divergence:  0.55E+01 at (  29,   1,  29)
       Min divergence: -0.17E+01 at (   1,   1,  29)
       Max div. error:  0.34E-07 at (  17,   1,  32)
       Max VN number:   0.85E-01 at (  29,   1,  29)
       Mesh   14
       Max CFL number:  0.47E+00 at (  32,   1,   3)
       Max divergence:  0.43E+01 at (   1,   1,  29)
       Min divergence: -0.18E+01 at (  29,   1,  29)
       Max div. error:  0.34E-07 at (  31,   1,  32)
       Max VN number:   0.79E-01 at (   1,   1,  29)
       Mesh   15
       Max CFL number:  0.47E+00 at (   2,   1,   2)
       Max divergence:  0.55E+01 at (  29,   1,  29)
       Min divergence: -0.17E+01 at (  29,   1,   1)
       Max div. error:  0.34E-07 at (  28,   1,  32)
       Max VN number:   0.85E-01 at (  29,   1,  29)
       Mesh   16
       Max CFL number:  0.47E+00 at (   3,   1,  32)
       Max divergence:  0.43E+01 at (   1,   1,  29)
       Min divergence: -0.18E+01 at (  29,   1,  29)
       Max div. error:  0.34E-07 at (  32,   1,  18)
       Max VN number:   0.79E-01 at (  29,   1,   1)
 
       Time Step      80   February 19, 2020  19:29:53
       Step Size:    0.541E-02 s, Total Time:       0.44 s
       Pressure Iterations:      1
       Maximum Velocity Error:  0.56E-16 on Mesh   1 at (   0   1   2)
       Maximum Pressure Error:  0.27E+01 on Mesh  12 at (  32   1  32)
       ScaRC: iterations   109, residual  0.96E-08, convergence rate   0.77E+00
       ---------------------------------------------------------------
       Mesh    1
       Max CFL number:  0.42E+00 at (  32,   1,   4)
       Max divergence:  0.35E+01 at (  31,   1,   1)
       Min divergence: -0.89E+00 at (  31,   1,  31)
       Max div. error:  0.17E-07 at (  15,   1,   1)
       Max VN number:   0.11E+00 at (   1,   1,  31)
       Mesh    2
       Max CFL number:  0.42E+00 at (   3,   1,   3)
       Max divergence:  0.39E+01 at (  31,   1,  31)
       Min divergence: -0.89E+00 at (  31,   1,   1)
       Max div. error:  0.17E-07 at (  18,   1,   1)
       Max VN number:   0.11E+00 at (  31,   1,  31)
       Mesh    3
       Max CFL number:  0.42E+00 at (  32,   1,   4)
       Max divergence:  0.35E+01 at (  31,   1,   1)
       Min divergence: -0.89E+00 at (  31,   1,  31)
       Max div. error:  0.17E-07 at (   1,   1,  18)
       Max VN number:   0.11E+00 at (   1,   1,  31)
       Mesh    4
       Max CFL number:  0.42E+00 at (   3,   1,   3)
       Max divergence:  0.39E+01 at (  31,   1,  31)
       Min divergence: -0.89E+00 at (  31,   1,   1)
       Max div. error:  0.17E-07 at (  19,   1,   1)
       Max VN number:   0.11E+00 at (  31,   1,  31)
       Mesh    5
       Max CFL number:  0.42E+00 at (   3,   1,   3)
       Max divergence:  0.39E+01 at (  31,   1,  31)
       Min divergence: -0.89E+00 at (   1,   1,  31)
       Max div. error:  0.17E-07 at (   1,   1,  17)
       Max VN number:   0.11E+00 at (  31,   1,  31)
       Mesh    6
       Max CFL number:  0.42E+00 at (  32,   1,   4)
       Max divergence:  0.35E+01 at (  31,   1,   1)
       Min divergence: -0.89E+00 at (  31,   1,  31)
       Max div. error:  0.17E-07 at (  14,   1,  32)
       Max VN number:   0.11E+00 at (   1,   1,  31)
       Mesh    7
       Max CFL number:  0.42E+00 at (   3,   1,   3)
       Max divergence:  0.39E+01 at (  31,   1,  31)
       Min divergence: -0.89E+00 at (   1,   1,  31)
       Max div. error:  0.17E-07 at (  15,   1,  32)
       Max VN number:   0.11E+00 at (  31,   1,  31)
       Mesh    8
       Max CFL number:  0.42E+00 at (  32,   1,   4)
       Max divergence:  0.35E+01 at (  31,   1,   1)
       Min divergence: -0.89E+00 at (  31,   1,  31)
       Max div. error:  0.17E-07 at (  32,   1,  13)
       Max VN number:   0.11E+00 at (   1,   1,  31)
       Mesh    9
       Max CFL number:  0.42E+00 at (   4,   1,  32)
       Max divergence:  0.35E+01 at (   1,   1,  31)
       Min divergence: -0.89E+00 at (  31,   1,  31)
       Max div. error:  0.17E-07 at (  20,   1,   1)
       Max VN number:   0.11E+00 at (  31,   1,   1)
       Mesh   10
       Max CFL number:  0.42E+00 at (   3,   1,   3)
       Max divergence:  0.39E+01 at (  31,   1,  31)
       Min divergence: -0.89E+00 at (  31,   1,   1)
       Max div. error:  0.17E-07 at (  32,   1,  16)
       Max VN number:   0.11E+00 at (  31,   1,  31)
       Mesh   11
       Max CFL number:  0.42E+00 at (   4,   1,  32)
       Max divergence:  0.35E+01 at (  31,   1,   1)
       Min divergence: -0.89E+00 at (  31,   1,  31)
       Max div. error:  0.17E-07 at (  23,   1,   1)
       Max VN number:   0.11E+00 at (  31,   1,   1)
       Mesh   12
       Max CFL number:  0.42E+00 at (   3,   1,   3)
       Max divergence:  0.39E+01 at (  31,   1,  31)
       Min divergence: -0.89E+00 at (  31,   1,   1)
       Max div. error:  0.17E-07 at (  32,   1,  24)
       Max VN number:   0.11E+00 at (  31,   1,  31)
       Mesh   13
       Max CFL number:  0.42E+00 at (   3,   1,   3)
       Max divergence:  0.39E+01 at (  31,   1,  31)
       Min divergence: -0.89E+00 at (   1,   1,  31)
       Max div. error:  0.17E-07 at (   1,   1,  19)
       Max VN number:   0.11E+00 at (  31,   1,  31)
       Mesh   14
       Max CFL number:  0.42E+00 at (   4,   1,  32)
       Max divergence:  0.35E+01 at (   1,   1,  31)
       Min divergence: -0.89E+00 at (  31,   1,  31)
       Max div. error:  0.17E-07 at (  13,   1,  32)
       Max VN number:   0.11E+00 at (  31,   1,   1)
       Mesh   15
       Max CFL number:  0.42E+00 at (   3,   1,   3)
       Max divergence:  0.39E+01 at (  31,   1,  31)
       Min divergence: -0.89E+00 at (   1,   1,  31)
       Max div. error:  0.17E-07 at (  24,   1,  32)
       Max VN number:   0.11E+00 at (  31,   1,  31)
       Mesh   16
       Max CFL number:  0.42E+00 at (   4,   1,  32)
       Max divergence:  0.35E+01 at (  31,   1,   1)
       Min divergence: -0.89E+00 at (  31,   1,  31)
       Max div. error:  0.17E-07 at (   1,   1,  25)
       Max VN number:   0.11E+00 at (   1,   1,  31)
 
       Time Step      90   February 19, 2020  19:29:54
       Step Size:    0.654E-02 s, Total Time:       0.50 s
       Pressure Iterations:      1
       Maximum Velocity Error:  0.11E-15 on Mesh   9 at (   3   1  33)
       Maximum Pressure Error:  0.26E+01 on Mesh   5 at (   3   1   3)
       ScaRC: iterations   109, residual  0.84E-08, convergence rate   0.77E+00
       ---------------------------------------------------------------
       Mesh    1
       Max CFL number:  0.42E+00 at (  28,   1,   1)
       Max divergence:  0.38E-01 at (  31,   1,  31)
       Min divergence: -0.19E+00 at (   2,   1,  31)
       Max VN number:   0.15E+00 at (   1,   1,  32)
       Mesh    2
       Max CFL number:  0.42E+00 at (  29,   1,  29)
       Max divergence:  0.37E-01 at (  30,   1,   3)
       Min divergence: -0.20E+00 at (  31,   1,  31)
       Max VN number:   0.15E+00 at (  32,   1,  32)
       Mesh    3
       Max CFL number:  0.42E+00 at (  28,   1,   1)
       Max divergence:  0.38E-01 at (  31,   1,  31)
       Min divergence: -0.19E+00 at (  31,   1,   2)
       Max VN number:   0.15E+00 at (   1,   1,  32)
       Mesh    4
       Max CFL number:  0.42E+00 at (  29,   1,  29)
       Max divergence:  0.37E-01 at (   3,   1,  30)
       Min divergence: -0.20E+00 at (  31,   1,  31)
       Max VN number:   0.15E+00 at (  32,   1,  32)
       Mesh    5
       Max CFL number:  0.42E+00 at (  29,   1,  29)
       Max divergence:  0.37E-01 at (  30,   1,   3)
       Min divergence: -0.20E+00 at (  31,   1,  31)
       Max VN number:   0.15E+00 at (  32,   1,  32)
       Mesh    6
       Max CFL number:  0.42E+00 at (   1,   1,  28)
       Max divergence:  0.38E-01 at (  31,   1,  31)
       Min divergence: -0.19E+00 at (  31,   1,   2)
       Max VN number:   0.15E+00 at (   1,   1,  32)
       Mesh    7
       Max CFL number:  0.42E+00 at (  29,   1,  29)
       Max divergence:  0.37E-01 at (   3,   1,  30)
       Min divergence: -0.20E+00 at (  31,   1,  31)
       Max VN number:   0.15E+00 at (  32,   1,  32)
       Mesh    8
       Max CFL number:  0.42E+00 at (  28,   1,   1)
       Max divergence:  0.38E-01 at (  31,   1,  31)
       Min divergence: -0.19E+00 at (   2,   1,  31)
       Max VN number:   0.15E+00 at (  32,   1,   1)
       Mesh    9
       Max CFL number:  0.42E+00 at (   1,   1,  28)
       Max divergence:  0.38E-01 at (  31,   1,  31)
       Min divergence: -0.19E+00 at (   2,   1,  31)
       Max VN number:   0.15E+00 at (  32,   1,   1)
       Mesh   10
       Max CFL number:  0.42E+00 at (  29,   1,  29)
       Max divergence:  0.37E-01 at (  30,   1,   3)
       Min divergence: -0.20E+00 at (  31,   1,  31)
       Max VN number:   0.15E+00 at (  32,   1,  32)
       Mesh   11
       Max CFL number:  0.42E+00 at (   1,   1,  28)
       Max divergence:  0.38E-01 at (  31,   1,  31)
       Min divergence: -0.19E+00 at (   2,   1,  31)
       Max VN number:   0.15E+00 at (   1,   1,  32)
       Mesh   12
       Max CFL number:  0.42E+00 at (  29,   1,  29)
       Max divergence:  0.37E-01 at (  30,   1,   3)
       Min divergence: -0.20E+00 at (  31,   1,  31)
       Max VN number:   0.15E+00 at (  32,   1,  32)
       Mesh   13
       Max CFL number:  0.42E+00 at (  29,   1,  29)
       Max divergence:  0.37E-01 at (  30,   1,   3)
       Min divergence: -0.20E+00 at (  31,   1,  31)
       Max VN number:   0.15E+00 at (  32,   1,  32)
       Mesh   14
       Max CFL number:  0.42E+00 at (   1,   1,  28)
       Max divergence:  0.38E-01 at (  31,   1,  31)
       Min divergence: -0.19E+00 at (  31,   1,   2)
       Max VN number:   0.15E+00 at (   1,   1,  32)
       Mesh   15
       Max CFL number:  0.42E+00 at (  29,   1,  29)
       Max divergence:  0.37E-01 at (   3,   1,  30)
       Min divergence: -0.20E+00 at (  31,   1,  31)
       Max VN number:   0.15E+00 at (  32,   1,  32)
       Mesh   16
       Max CFL number:  0.42E+00 at (  28,   1,   1)
       Max divergence:  0.38E-01 at (  31,   1,  31)
       Min divergence: -0.19E+00 at (  31,   1,   2)
       Max VN number:   0.15E+00 at (   1,   1,  32)
 
       Time Step     100   February 19, 2020  19:29:56
       Step Size:    0.588E-02 s, Total Time:       0.56 s
       Pressure Iterations:      1
       Maximum Velocity Error:  0.56E-16 on Mesh   1 at (   0   1   3)
       Maximum Pressure Error:  0.34E+01 on Mesh   4 at (   1   1   1)
       ScaRC: iterations   112, residual  0.75E-08, convergence rate   0.77E+00
       ---------------------------------------------------------------
       Mesh    1
       Max CFL number:  0.46E+00 at (   1,   1,  29)
       Max divergence:  0.10E+01 at (   2,   1,   2)
       Min divergence: -0.37E+01 at (  32,   1,   3)
       Max div. error:  0.20E-07 at (   1,   1,  32)
       Max VN number:   0.11E+00 at (  32,   1,   3)
       Mesh    2
       Max CFL number:  0.47E+00 at (  30,   1,  30)
       Max divergence:  0.10E+01 at (  32,   1,   2)
       Min divergence: -0.42E+01 at (   3,   1,   3)
       Max div. error:  0.20E-07 at (  26,   1,   1)
       Max VN number:   0.11E+00 at (   3,   1,   3)
       Mesh    3
       Max CFL number:  0.46E+00 at (  29,   1,   1)
       Max divergence:  0.10E+01 at (   2,   1,   2)
       Min divergence: -0.37E+01 at (   3,   1,  32)
       Max div. error:  0.20E-07 at (  29,   1,   1)
       Max VN number:   0.11E+00 at (  32,   1,   3)
       Mesh    4
       Max CFL number:  0.47E+00 at (  30,   1,  30)
       Max divergence:  0.10E+01 at (   2,   1,  32)
       Min divergence: -0.42E+01 at (   3,   1,   3)
       Max div. error:  0.20E-07 at (  32,   1,  15)
       Max VN number:   0.11E+00 at (   3,   1,   3)
       Mesh    5
       Max CFL number:  0.47E+00 at (  30,   1,  30)
       Max divergence:  0.10E+01 at (   2,   1,  32)
       Min divergence: -0.42E+01 at (   3,   1,   3)
       Max div. error:  0.20E-07 at (   1,   1,  26)
       Max VN number:   0.11E+00 at (   3,   1,   3)
       Mesh    6
       Max CFL number:  0.46E+00 at (   1,   1,  29)
       Max divergence:  0.10E+01 at (   2,   1,   2)
       Min divergence: -0.37E+01 at (  32,   1,   3)
       Max div. error:  0.20E-07 at (  32,   1,  20)
       Max VN number:   0.11E+00 at (   3,   1,  32)
       Mesh    7
       Max CFL number:  0.47E+00 at (  30,   1,  30)
       Max divergence:  0.10E+01 at (  32,   1,   2)
       Min divergence: -0.42E+01 at (   3,   1,   3)
       Max div. error:  0.20E-07 at (   1,   1,  32)
       Max VN number:   0.11E+00 at (   3,   1,   3)
       Mesh    8
       Max CFL number:  0.46E+00 at (   1,   1,  29)
       Max divergence:  0.10E+01 at (   2,   1,   2)
       Min divergence: -0.37E+01 at (   3,   1,  32)
       Max div. error:  0.20E-07 at (  32,   1,   1)
       Max VN number:   0.11E+00 at (  32,   1,   3)
       Mesh    9
       Max CFL number:  0.46E+00 at (   1,   1,  29)
       Max divergence:  0.10E+01 at (   2,   1,   2)
       Min divergence: -0.37E+01 at (  32,   1,   3)
       Max div. error:  0.20E-07 at (   1,   1,  29)
       Max VN number:   0.11E+00 at (   3,   1,  32)
       Mesh   10
       Max CFL number:  0.47E+00 at (  30,   1,  30)
       Max divergence:  0.10E+01 at (   2,   1,  32)
       Min divergence: -0.42E+01 at (   3,   1,   3)
       Max div. error:  0.20E-07 at (  32,   1,   1)
       Max VN number:   0.11E+00 at (   3,   1,   3)
       Mesh   11
       Max CFL number:  0.46E+00 at (  29,   1,   1)
       Max divergence:  0.10E+01 at (   2,   1,   2)
       Min divergence: -0.37E+01 at (  32,   1,   3)
       Max div. error:  0.20E-07 at (  10,   1,  32)
       Max VN number:   0.11E+00 at (  32,   1,   3)
       Mesh   12
       Max CFL number:  0.47E+00 at (  30,   1,  30)
       Max divergence:  0.10E+01 at (  32,   1,   2)
       Min divergence: -0.42E+01 at (   3,   1,   3)
       Max div. error:  0.20E-07 at (  32,   1,   9)
       Max VN number:   0.11E+00 at (   3,   1,   3)
       Mesh   13
       Max CFL number:  0.47E+00 at (  30,   1,  30)
       Max divergence:  0.10E+01 at (  32,   1,   2)
       Min divergence: -0.42E+01 at (   3,   1,   3)
       Max div. error:  0.20E-07 at (  15,   1,  32)
       Max VN number:   0.11E+00 at (   3,   1,   3)
       Mesh   14
       Max CFL number:  0.46E+00 at (  29,   1,   1)
       Max divergence:  0.10E+01 at (   2,   1,   2)
       Min divergence: -0.37E+01 at (  32,   1,   3)
       Max div. error:  0.20E-07 at (   1,   1,  32)
       Max VN number:   0.11E+00 at (   3,   1,  32)
       Mesh   15
       Max CFL number:  0.47E+00 at (  30,   1,  30)
       Max divergence:  0.10E+01 at (   2,   1,  32)
       Min divergence: -0.42E+01 at (   3,   1,   3)
       Max div. error:  0.20E-07 at (  12,   1,  32)
       Max VN number:   0.11E+00 at (   3,   1,   3)
       Mesh   16
       Max CFL number:  0.46E+00 at (   1,   1,  29)
       Max divergence:  0.10E+01 at (   2,   1,   2)
       Min divergence: -0.37E+01 at (   3,   1,  32)
       Max div. error:  0.20E-07 at (  19,   1,  32)
       Max VN number:   0.11E+00 at (  32,   1,   3)
 
       Time Step     182   February 19, 2020  19:30:09
       Step Size:    0.243E-02 s, Total Time:       1.00 s
       Pressure Iterations:      1
       Maximum Velocity Error:  0.11E-15 on Mesh   1 at (  12   1  33)
       Maximum Pressure Error:  0.75E+00 on Mesh   6 at (  19   1  19)
       ScaRC: iterations   100, residual  0.84E-08, convergence rate   0.79E+00
       ---------------------------------------------------------------
       Mesh    1
       Max CFL number:  0.16E+00 at (  17,   1,  17)
       Max divergence:  0.65E-01 at (  17,   1,  17)
       Min divergence: -0.42E-01 at (  15,   1,  15)
       Max VN number:   0.55E-01 at (  16,   1,  16)
       Mesh    2
       Max CFL number:  0.16E+00 at (  15,   1,  15)
       Max divergence:  0.31E-02 at (  14,   1,  14)
       Min divergence: -0.29E-02 at (  16,   1,  12)
       Max VN number:   0.19E-01 at (   1,   1,   1)
       Mesh    3
       Max CFL number:  0.16E+00 at (  17,   1,  17)
       Max divergence:  0.65E-01 at (  17,   1,  17)
       Min divergence: -0.42E-01 at (  15,   1,  15)
       Max VN number:   0.55E-01 at (  16,   1,  16)
       Mesh    4
       Max CFL number:  0.16E+00 at (  15,   1,  15)
       Max divergence:  0.31E-02 at (  14,   1,  14)
       Min divergence: -0.29E-02 at (  12,   1,  16)
       Max VN number:   0.19E-01 at (   1,   1,   1)
       Mesh    5
       Max CFL number:  0.16E+00 at (  15,   1,  15)
       Max divergence:  0.31E-02 at (  14,   1,  14)
       Min divergence: -0.29E-02 at (  12,   1,  16)
       Max VN number:   0.19E-01 at (   1,   1,   1)
       Mesh    6
       Max CFL number:  0.16E+00 at (  17,   1,  17)
       Max divergence:  0.65E-01 at (  17,   1,  17)
       Min divergence: -0.42E-01 at (  15,   1,  15)
       Max VN number:   0.55E-01 at (  16,   1,  16)
       Mesh    7
       Max CFL number:  0.16E+00 at (  15,   1,  15)
       Max divergence:  0.31E-02 at (  14,   1,  14)
       Min divergence: -0.29E-02 at (  12,   1,  16)
       Max VN number:   0.19E-01 at (   1,   1,   1)
       Mesh    8
       Max CFL number:  0.16E+00 at (  17,   1,  17)
       Max divergence:  0.65E-01 at (  17,   1,  17)
       Min divergence: -0.42E-01 at (  15,   1,  15)
       Max VN number:   0.55E-01 at (  16,   1,  16)
       Mesh    9
       Max CFL number:  0.16E+00 at (  17,   1,  17)
       Max divergence:  0.65E-01 at (  17,   1,  17)
       Min divergence: -0.42E-01 at (  15,   1,  15)
       Max VN number:   0.55E-01 at (  16,   1,  16)
       Mesh   10
       Max CFL number:  0.16E+00 at (  15,   1,  15)
       Max divergence:  0.31E-02 at (  14,   1,  14)
       Min divergence: -0.29E-02 at (  12,   1,  16)
       Max VN number:   0.19E-01 at (   1,   1,   1)
       Mesh   11
       Max CFL number:  0.16E+00 at (  17,   1,  17)
       Max divergence:  0.65E-01 at (  17,   1,  17)
       Min divergence: -0.42E-01 at (  15,   1,  15)
       Max VN number:   0.55E-01 at (  16,   1,  16)
       Mesh   12
       Max CFL number:  0.16E+00 at (  15,   1,  15)
       Max divergence:  0.31E-02 at (  14,   1,  14)
       Min divergence: -0.29E-02 at (  12,   1,  16)
       Max VN number:   0.19E-01 at (   1,   1,   1)
       Mesh   13
       Max CFL number:  0.16E+00 at (  15,   1,  15)
       Max divergence:  0.31E-02 at (  14,   1,  14)
       Min divergence: -0.29E-02 at (  16,   1,  12)
       Max VN number:   0.19E-01 at (   1,   1,   1)
       Mesh   14
       Max CFL number:  0.16E+00 at (  17,   1,  17)
       Max divergence:  0.65E-01 at (  17,   1,  17)
       Min divergence: -0.42E-01 at (  15,   1,  15)
       Max VN number:   0.55E-01 at (  16,   1,  16)
       Mesh   15
       Max CFL number:  0.16E+00 at (  15,   1,  15)
       Max divergence:  0.31E-02 at (  14,   1,  14)
       Min divergence: -0.29E-02 at (  12,   1,  16)
       Max VN number:   0.19E-01 at (   1,   1,   1)
       Mesh   16
       Max CFL number:  0.16E+00 at (  17,   1,  17)
       Max divergence:  0.65E-01 at (  17,   1,  17)
       Min divergence: -0.42E-01 at (  15,   1,  15)
       Max VN number:   0.55E-01 at (  16,   1,  16)
 


 Time Stepping Wall Clock Time (s):       24.599
 Total Elapsed Wall Clock Time (s):       24.987

STOP: FDS completed successfully (CHID: shunn3_16mesh_128_scarc)
