
 Fire Dynamics Simulator

 Current Date     : November  6, 2018  11:14:57
 Revision         : FDS6.7.0-727-g3791e9f67-master
 Revision Date    : Wed Oct 17 18:00:38 2018 +0200
 Compiler         : Intel ifort 18.0.3
 Compilation Date : Nov 02, 2018  16:33:45

 MPI Enabled;    Number of MPI Processes:       4
 OpenMP Enabled; Number of OpenMP Threads:      4

 MPI version: 3.0
 MPI library version: Open MPI v1.8.3, package: Open MPI gforney@bluesky.el.nist.gov Distribution, ident: 1.8.3, Sep 25, 2014

 Job TITLE        : Shunn et al. (2012) JCP, Problem 3, FLUX_LIMITER=CHARM
 Job ID string    : shunn3_4mesh_32_scarc


 Grid Dimensions, Mesh     1

   Cells in the X Direction            16
   Cells in the Y Direction             1
   Cells in the Z Direction            16


 Physical Dimensions, Mesh     1

   Length (m)                       1.000
   Width  (m)                       0.100
   Height (m)                       1.000
   Initial Time Step (s)            0.035

 Grid Dimensions, Mesh     2

   Cells in the X Direction            16
   Cells in the Y Direction             1
   Cells in the Z Direction            16


 Physical Dimensions, Mesh     2

   Length (m)                       1.000
   Width  (m)                       0.100
   Height (m)                       1.000
   Initial Time Step (s)            0.035

 Grid Dimensions, Mesh     3

   Cells in the X Direction            16
   Cells in the Y Direction             1
   Cells in the Z Direction            16


 Physical Dimensions, Mesh     3

   Length (m)                       1.000
   Width  (m)                       0.100
   Height (m)                       1.000
   Initial Time Step (s)            0.035

 Grid Dimensions, Mesh     4

   Cells in the X Direction            16
   Cells in the Y Direction             1
   Cells in the Z Direction            16


 Physical Dimensions, Mesh     4

   Length (m)                       1.000
   Width  (m)                       0.100
   Height (m)                       1.000
   Initial Time Step (s)            0.035


 Miscellaneous Parameters

   Simulation Start Time (s)          0.0
   Simulation End Time (s)            1.0
   Ambient Temperature (C)          20.00


 Mass Fraction Transformation Matrix to Convert Species Mixtures (Columns) to Primitive Species (Rows)

                         BACKGROU  SCALAR  
   BACKGROUND            1.000000  0.000000
   SCALAR                0.000000  1.000000


 Primitive Species Information

   BACKGROUND
   Gas Species
   Molecular Weight (g/mol)            50.00000
   Ambient Density (kg/m^3)            5.000
   Enthalpy of Formation (J/kg)        2.98E+05

   SCALAR
   Gas Species
   Molecular Weight (g/mol)            10.00000
   Ambient Density (kg/m^3)            1.000
   Enthalpy of Formation (J/kg)        2.98E+05


 Tracked (Lumped) Species Information

   BACKGROUND
   Molecular Weight (g/mol)            50.00000
   Ambient Density (kg/m^3)            5.000
   Initial Mass Fraction               1.000
   Enthalpy of Formation (J/kg)      2.98E+05

   Sub Species                    Mass Fraction     Mole Fraction
   BACKGROUND                     1.000000E+00      1.000000E+00
 
     Viscosity (kg/m/s) Ambient,  293 K:  1.00E-03
                                  500 K:  1.00E-03
                                 1000 K:  1.00E-03
                                 1500 K:  1.00E-03
   Therm. Cond. (W/m/K) Ambient,  293 K:  1.41E+00
                                  500 K:  1.41E+00
                                 1000 K:  1.41E+00
                                 1500 K:  1.41E+00
        Enthalpy (J/kg) Ambient,  293 K:  2.93E+05
                                  500 K:  5.00E+05
                                 1000 K:  1.00E+06
                                 1500 K:  1.50E+06
    Spec. Heat (J/kg/K) Ambient,  293 K:  1.00E+03
                                  500 K:  1.00E+03
                                 1000 K:  1.00E+03
                                 1500 K:  1.00E+03
   Diff. Coeff. (m^2/s) Ambient,  293 K:  1.49E-05
                                  500 K:  3.69E-05
                                 1000 K:  1.17E-04
                                 1500 K:  2.30E-04

   SCALAR
   Molecular Weight (g/mol)            10.00000
   Ambient Density (kg/m^3)            1.000
   Initial Mass Fraction               0.000
   Enthalpy of Formation (J/kg)      2.98E+05

   Sub Species                    Mass Fraction     Mole Fraction
   SCALAR                         1.000000E+00      1.000000E+00
 
     Viscosity (kg/m/s) Ambient,  293 K:  1.00E-03
                                  500 K:  1.00E-03
                                 1000 K:  1.00E-03
                                 1500 K:  1.00E-03
   Therm. Cond. (W/m/K) Ambient,  293 K:  1.41E+00
                                  500 K:  1.41E+00
                                 1000 K:  1.41E+00
                                 1500 K:  1.41E+00
        Enthalpy (J/kg) Ambient,  293 K:  2.93E+05
                                  500 K:  5.00E+05
                                 1000 K:  1.00E+06
                                 1500 K:  1.50E+06
    Spec. Heat (J/kg/K) Ambient,  293 K:  1.00E+03
                                  500 K:  1.00E+03
                                 1000 K:  1.00E+03
                                 1500 K:  1.00E+03
   Diff. Coeff. (m^2/s) Ambient,  293 K:  2.57E-05
                                  500 K:  6.40E-05
                                 1000 K:  2.03E-04
                                 1500 K:  3.98E-04


 Material Information


 Surface Conditions

   0 INERT (DEFAULT)

   1 OPEN
     Passive Vent to Atmosphere

   2 MIRROR
     Symmetry Plane

   3 INTERPOLATED

   4 PERIODIC

   5 HVAC

   6 MASSLESS TRACER

   7 DROPLET

   8 VEGETATION

   9 EVACUATION_OUTFLOW
     Normal Velocity (m/s)         0.000

  10 MASSLESS TARGET

  11 PERIODIC WIND

  12 SLICE


 Device Coordinates

     1 Coords:    -0.00     0.00    -0.00, Make: null, ID: scarc-iter, Quantity: SCARC ITERATIONS
     2 Coords:    -0.00     0.00    -0.00, Make: null, ID: scarc-rate, Quantity: SCARC CONVERGENCE RATE
     3 Coords:    -0.00     0.00    -0.00, Make: null, ID: scarc-res, Quantity: SCARC RESIDUAL


 Slice File Information, Mesh     1

   Sampling Interval (s)             0.001

   1 Nodes:   0  16   1   1   0  16, Quantity: VELOCITY
   2 Nodes:   0  16   1   1   0  16, Quantity: U-VELOCITY
   3 Nodes:   0  16   1   1   0  16, Quantity: W-VELOCITY
   4 Nodes:   0  16   1   1   0  16, Quantity: DENSITY
   5 Nodes:   0  16   1   1   0  16, Quantity: DIVERGENCE
   6 Nodes:   0  16   1   1   0  16, Quantity: SCALAR MASS FRACTION
   7 Nodes:   0  16   1   1   0  16, Quantity: TEMPERATURE
   8 Nodes:   0  16   1   1   0  16, Quantity: H
   9 Nodes:   0  16   1   1   0  16, Quantity: PRESSURE
  10 Nodes:   0  16   1   1   0  16, Quantity: VISCOSITY


 SCARC Information

   Discretization        STRUCTURED
   Global solver             KRYLOV
   Preconditioner               FFT
   Max iterations              1000
   Stopping accuracy       0.10E-07
 
 

 Run Time Diagnostics

       Time Step       1   November  6, 2018  11:14:57
       Step Size:    0.223E-01 s, Total Time:       0.02 s
       Pressure Iterations:      1
       Maximum Velocity Error:  0.11E-15 on Mesh   2 at (  11   1  17)
       Maximum Pressure Error:  0.00E+00 on Mesh   1 at (   0   0   0)
       ScaRC: iterations    24, residual  0.32E-08, convergence rate   0.37E+00
       ---------------------------------------------------------------
       Mesh    1
       Max CFL number:  0.42E+00 at (   4,   1,   4)
       Max divergence:  0.35E+00 at (   5,   1,  13)
       Min divergence: -0.15E+01 at (  13,   1,  13)
       Max div. error:  0.56E-05 at (  16,   1,   5)
       Max VN number:   0.30E-01 at (  13,   1,  13)
       Mesh    2
       Max CFL number:  0.42E+00 at (   4,   1,   4)
       Max divergence:  0.35E+00 at (   5,   1,  13)
       Min divergence: -0.15E+01 at (  13,   1,  13)
       Max div. error:  0.56E-05 at (  16,   1,   5)
       Max VN number:   0.30E-01 at (  13,   1,  13)
       Mesh    3
       Max CFL number:  0.42E+00 at (   4,   1,   4)
       Max divergence:  0.35E+00 at (   5,   1,  13)
       Min divergence: -0.15E+01 at (  13,   1,  13)
       Max div. error:  0.56E-05 at (  16,   1,   5)
       Max VN number:   0.30E-01 at (  13,   1,  13)
       Mesh    4
       Max CFL number:  0.42E+00 at (   4,   1,   4)
       Max divergence:  0.35E+00 at (   5,   1,  13)
       Min divergence: -0.15E+01 at (  13,   1,  13)
       Max div. error:  0.56E-05 at (  16,   1,   5)
       Max VN number:   0.30E-01 at (   5,   1,   5)
 
       Time Step       2   November  6, 2018  11:14:57
       Step Size:    0.223E-01 s, Total Time:       0.04 s
       Pressure Iterations:      1
       Maximum Velocity Error:  0.56E-16 on Mesh   1 at (   0   1   9)
       Maximum Pressure Error:  0.00E+00 on Mesh   1 at (   0   0   0)
       ScaRC: iterations    24, residual  0.65E-08, convergence rate   0.38E+00
       ---------------------------------------------------------------
       Mesh    1
       Max CFL number:  0.47E+00 at (   4,   1,   4)
       Max divergence:  0.70E+00 at (  13,   1,   5)
       Min divergence: -0.31E+01 at (  13,   1,  13)
       Max div. error:  0.58E-05 at (  16,   1,   5)
       Max VN number:   0.28E-01 at (  13,   1,  13)
       Mesh    2
       Max CFL number:  0.47E+00 at (   4,   1,   4)
       Max divergence:  0.70E+00 at (  13,   1,   5)
       Min divergence: -0.31E+01 at (  13,   1,  13)
       Max div. error:  0.58E-05 at (  16,   1,   5)
       Max VN number:   0.28E-01 at (  13,   1,  13)
       Mesh    3
       Max CFL number:  0.47E+00 at (   4,   1,   4)
       Max divergence:  0.70E+00 at (   5,   1,  13)
       Min divergence: -0.31E+01 at (  13,   1,  13)
       Max div. error:  0.58E-05 at (  16,   1,   5)
       Max VN number:   0.28E-01 at (  13,   1,  13)
       Mesh    4
       Max CFL number:  0.47E+00 at (   4,   1,   4)
       Max divergence:  0.70E+00 at (   5,   1,  13)
       Min divergence: -0.31E+01 at (  13,   1,  13)
       Max div. error:  0.58E-05 at (  16,   1,   5)
       Max VN number:   0.28E-01 at (  13,   1,  13)
 
       Time Step       3   November  6, 2018  11:14:58
       Step Size:    0.198E-01 s, Total Time:       0.06 s
       Pressure Iterations:      1
       Maximum Velocity Error:  0.11E-15 on Mesh   1 at (  16   1   0)
       Maximum Pressure Error:  0.00E+00 on Mesh   1 at (   0   0   0)
       ScaRC: iterations    24, residual  0.53E-08, convergence rate   0.38E+00
       ---------------------------------------------------------------
       Mesh    1
       Max CFL number:  0.45E+00 at (   4,   1,   4)
       Max divergence:  0.10E+01 at (  13,   1,   5)
       Min divergence: -0.42E+01 at (  13,   1,  13)
       Max div. error:  0.59E-05 at (  16,   1,  13)
       Max VN number:   0.23E-01 at (  13,   1,  13)
       Mesh    2
       Max CFL number:  0.45E+00 at (   4,   1,   4)
       Max divergence:  0.10E+01 at (  13,   1,   5)
       Min divergence: -0.42E+01 at (  13,   1,  13)
       Max div. error:  0.59E-05 at (  16,   1,  13)
       Max VN number:   0.23E-01 at (  13,   1,  13)
       Mesh    3
       Max CFL number:  0.45E+00 at (   4,   1,   4)
       Max divergence:  0.10E+01 at (   5,   1,  13)
       Min divergence: -0.42E+01 at (  13,   1,  13)
       Max div. error:  0.59E-05 at (  16,   1,  13)
       Max VN number:   0.23E-01 at (  13,   1,  13)
       Mesh    4
       Max CFL number:  0.45E+00 at (   4,   1,   4)
       Max divergence:  0.10E+01 at (   5,   1,  13)
       Min divergence: -0.42E+01 at (  13,   1,  13)
       Max div. error:  0.59E-05 at (  16,   1,  13)
       Max VN number:   0.23E-01 at (  13,   1,  13)
 
       Time Step       4   November  6, 2018  11:14:58
       Step Size:    0.198E-01 s, Total Time:       0.08 s
       Pressure Iterations:      1
       Maximum Velocity Error:  0.11E-15 on Mesh   1 at (   6   1  17)
       Maximum Pressure Error:  0.00E+00 on Mesh   1 at (   0   0   0)
       ScaRC: iterations    25, residual  0.19E-08, convergence rate   0.37E+00
       ---------------------------------------------------------------
       Mesh    1
       Max CFL number:  0.48E+00 at (   5,   1,   5)
       Max divergence:  0.13E+01 at (   5,   1,  13)
       Min divergence: -0.48E+01 at (  13,   1,  13)
       Max div. error:  0.59E-05 at (  11,   1,   1)
       Max VN number:   0.21E-01 at (  13,   1,  13)
       Mesh    2
       Max CFL number:  0.48E+00 at (   5,   1,   5)
       Max divergence:  0.13E+01 at (   5,   1,  13)
       Min divergence: -0.48E+01 at (  13,   1,  13)
       Max div. error:  0.59E-05 at (  11,   1,  16)
       Max VN number:   0.21E-01 at (  13,   1,  13)
       Mesh    3
       Max CFL number:  0.48E+00 at (   5,   1,   5)
       Max divergence:  0.13E+01 at (   5,   1,  13)
       Min divergence: -0.48E+01 at (  13,   1,  13)
       Max div. error:  0.59E-05 at (  11,   1,   1)
       Max VN number:   0.21E-01 at (  13,   1,  13)
       Mesh    4
       Max CFL number:  0.48E+00 at (   5,   1,   5)
       Max divergence:  0.13E+01 at (   5,   1,  13)
       Min divergence: -0.48E+01 at (  13,   1,  13)
       Max div. error:  0.59E-05 at (  11,   1,   1)
       Max VN number:   0.21E-01 at (  13,   1,  13)
 
       Time Step       5   November  6, 2018  11:14:58
       Step Size:    0.177E-01 s, Total Time:       0.10 s
       Pressure Iterations:      1
       Maximum Velocity Error:  0.56E-16 on Mesh   3 at (  17   1   1)
       Maximum Pressure Error:  0.00E+00 on Mesh   1 at (   0   0   0)
       ScaRC: iterations    25, residual  0.25E-08, convergence rate   0.38E+00
       ---------------------------------------------------------------
       Mesh    1
       Max CFL number:  0.45E+00 at (  13,   1,  13)
       Max divergence:  0.16E+01 at (  13,   1,   5)
       Min divergence: -0.51E+01 at (  13,   1,  13)
       Max div. error:  0.51E-05 at (  11,   1,   1)
       Max VN number:   0.17E-01 at (  13,   1,  13)
       Mesh    2
       Max CFL number:  0.45E+00 at (  13,   1,  13)
       Max divergence:  0.16E+01 at (   5,   1,  13)
       Min divergence: -0.51E+01 at (  13,   1,  13)
       Max div. error:  0.51E-05 at (  11,   1,   1)
       Max VN number:   0.17E-01 at (  13,   1,  13)
       Mesh    3
       Max CFL number:  0.45E+00 at (  13,   1,  13)
       Max divergence:  0.16E+01 at (  13,   1,   5)
       Min divergence: -0.51E+01 at (  13,   1,  13)
       Max div. error:  0.51E-05 at (  11,   1,  16)
       Max VN number:   0.17E-01 at (  13,   1,  13)
       Mesh    4
       Max CFL number:  0.45E+00 at (  13,   1,  13)
       Max divergence:  0.16E+01 at (   5,   1,  13)
       Min divergence: -0.51E+01 at (  13,   1,  13)
       Max div. error:  0.51E-05 at (  11,   1,   1)
       Max VN number:   0.17E-01 at (  13,   1,  13)
 
       Time Step       6   November  6, 2018  11:14:59
       Step Size:    0.177E-01 s, Total Time:       0.12 s
       Pressure Iterations:      1
       Maximum Velocity Error:  0.11E-15 on Mesh   1 at (  17   1   6)
       Maximum Pressure Error:  0.00E+00 on Mesh   1 at (   0   0   0)
       ScaRC: iterations    25, residual  0.31E-08, convergence rate   0.38E+00
       ---------------------------------------------------------------
       Mesh    1
       Max CFL number:  0.46E+00 at (  13,   1,  13)
       Max divergence:  0.19E+01 at (  13,   1,   5)
       Min divergence: -0.51E+01 at (   5,   1,   5)
       Max div. error:  0.38E-05 at (   1,   1,  16)
       Max VN number:   0.15E-01 at (   6,   1,   6)
       Mesh    2
       Max CFL number:  0.46E+00 at (  13,   1,  13)
       Max divergence:  0.19E+01 at (   5,   1,  13)
       Min divergence: -0.51E+01 at (   5,   1,   5)
       Max div. error:  0.38E-05 at (   1,   1,  16)
       Max VN number:   0.15E-01 at (   6,   1,   6)
       Mesh    3
       Max CFL number:  0.46E+00 at (  13,   1,  13)
       Max divergence:  0.19E+01 at (  13,   1,   5)
       Min divergence: -0.51E+01 at (   5,   1,   5)
       Max div. error:  0.38E-05 at (   1,   1,  16)
       Max VN number:   0.15E-01 at (   6,   1,   6)
       Mesh    4
       Max CFL number:  0.46E+00 at (  13,   1,  13)
       Max divergence:  0.19E+01 at (   5,   1,  13)
       Min divergence: -0.51E+01 at (   5,   1,   5)
       Max div. error:  0.38E-05 at (   1,   1,  16)
       Max VN number:   0.15E-01 at (   6,   1,   6)
 
       Time Step       7   November  6, 2018  11:14:59
       Step Size:    0.177E-01 s, Total Time:       0.14 s
       Pressure Iterations:      1
       Maximum Velocity Error:  0.11E-15 on Mesh   1 at (   0   1   4)
       Maximum Pressure Error:  0.00E+00 on Mesh   1 at (   0   0   0)
       ScaRC: iterations    25, residual  0.33E-08, convergence rate   0.38E+00
       ---------------------------------------------------------------
       Mesh    1
       Max CFL number:  0.47E+00 at (  13,   1,  13)
       Max divergence:  0.22E+01 at (   6,   1,  14)
       Min divergence: -0.53E+01 at (  14,   1,  14)
       Max div. error:  0.24E-05 at (   1,   1,  16)
       Max VN number:   0.14E-01 at (   6,   1,   6)
       Mesh    2
       Max CFL number:  0.47E+00 at (  13,   1,  13)
       Max divergence:  0.22E+01 at (  14,   1,   6)
       Min divergence: -0.53E+01 at (  14,   1,  14)
       Max div. error:  0.24E-05 at (   1,   1,  16)
       Max VN number:   0.14E-01 at (   6,   1,   6)
       Mesh    3
       Max CFL number:  0.47E+00 at (  13,   1,  13)
       Max divergence:  0.22E+01 at (   6,   1,  14)
       Min divergence: -0.53E+01 at (  14,   1,  14)
       Max div. error:  0.24E-05 at (   1,   1,  16)
       Max VN number:   0.14E-01 at (   6,   1,   6)
       Mesh    4
       Max CFL number:  0.47E+00 at (  13,   1,  13)
       Max divergence:  0.22E+01 at (   6,   1,  14)
       Min divergence: -0.53E+01 at (  14,   1,  14)
       Max div. error:  0.24E-05 at (   1,   1,  16)
       Max VN number:   0.14E-01 at (   6,   1,   6)
 
       Time Step       8   November  6, 2018  11:14:59
       Step Size:    0.177E-01 s, Total Time:       0.16 s
       Pressure Iterations:      1
       Maximum Velocity Error:  0.11E-15 on Mesh   1 at (   0   1   4)
       Maximum Pressure Error:  0.00E+00 on Mesh   1 at (   0   0   0)
       ScaRC: iterations    25, residual  0.33E-08, convergence rate   0.38E+00
       ---------------------------------------------------------------
       Mesh    1
       Max CFL number:  0.47E+00 at (  13,   1,  13)
       Max divergence:  0.25E+01 at (   6,   1,  14)
       Min divergence: -0.54E+01 at (  14,   1,  14)
       Max div. error:  0.90E-06 at (   1,   1,  16)
       Max VN number:   0.13E-01 at (   6,   1,   6)
       Mesh    2
       Max CFL number:  0.47E+00 at (  13,   1,  13)
       Max divergence:  0.25E+01 at (   6,   1,  14)
       Min divergence: -0.54E+01 at (  14,   1,  14)
       Max div. error:  0.90E-06 at (   1,   1,  16)
       Max VN number:   0.13E-01 at (   6,   1,   6)
       Mesh    3
       Max CFL number:  0.47E+00 at (  13,   1,  13)
       Max divergence:  0.25E+01 at (   6,   1,  14)
       Min divergence: -0.54E+01 at (  14,   1,  14)
       Max div. error:  0.90E-06 at (   1,   1,  16)
       Max VN number:   0.13E-01 at (   6,   1,   6)
       Mesh    4
       Max CFL number:  0.47E+00 at (  13,   1,  13)
       Max divergence:  0.25E+01 at (   6,   1,  14)
       Min divergence: -0.54E+01 at (  14,   1,  14)
       Max div. error:  0.90E-06 at (   1,   1,  16)
       Max VN number:   0.13E-01 at (   6,   1,   6)
 
       Time Step       9   November  6, 2018  11:14:59
       Step Size:    0.177E-01 s, Total Time:       0.17 s
       Pressure Iterations:      1
       Maximum Velocity Error:  0.11E-15 on Mesh   1 at (   0   1   4)
       Maximum Pressure Error:  0.00E+00 on Mesh   1 at (   0   0   0)
       ScaRC: iterations    25, residual  0.32E-08, convergence rate   0.38E+00
       ---------------------------------------------------------------
       Mesh    1
       Max CFL number:  0.47E+00 at (  13,   1,  13)
       Max divergence:  0.28E+01 at (  14,   1,   6)
       Min divergence: -0.53E+01 at (  14,   1,  14)
       Max div. error:  0.51E-07 at (   1,   1,   2)
       Max VN number:   0.12E-01 at (   7,   1,   6)
       Mesh    2
       Max CFL number:  0.47E+00 at (  13,   1,  13)
       Max divergence:  0.28E+01 at (   6,   1,  14)
       Min divergence: -0.53E+01 at (  14,   1,  14)
       Max div. error:  0.51E-07 at (   1,   1,   2)
       Max VN number:   0.12E-01 at (   6,   1,   7)
       Mesh    3
       Max CFL number:  0.47E+00 at (  13,   1,  13)
       Max divergence:  0.28E+01 at (  14,   1,   6)
       Min divergence: -0.53E+01 at (  14,   1,  14)
       Max div. error:  0.51E-07 at (   1,   1,   2)
       Max VN number:   0.12E-01 at (   7,   1,   6)
       Mesh    4
       Max CFL number:  0.47E+00 at (  13,   1,  13)
       Max divergence:  0.28E+01 at (   6,   1,  14)
       Min divergence: -0.53E+01 at (  14,   1,  14)
       Max div. error:  0.51E-07 at (   1,   1,   2)
       Max VN number:   0.12E-01 at (   6,   1,   7)
 
       Time Step      10   November  6, 2018  11:15:00
       Step Size:    0.177E-01 s, Total Time:       0.19 s
       Pressure Iterations:      1
       Maximum Velocity Error:  0.11E-15 on Mesh   1 at (   0   1   6)
       Maximum Pressure Error:  0.00E+00 on Mesh   1 at (   0   0   0)
       ScaRC: iterations    25, residual  0.36E-08, convergence rate   0.38E+00
       ---------------------------------------------------------------
       Mesh    1
       Max CFL number:  0.47E+00 at (  13,   1,  13)
       Max divergence:  0.31E+01 at (  14,   1,   6)
       Min divergence: -0.51E+01 at (  14,   1,  14)
       Max div. error:  0.11E-05 at (  16,   1,   2)
       Max VN number:   0.11E-01 at (   7,   1,   7)
       Mesh    2
       Max CFL number:  0.47E+00 at (  13,   1,  13)
       Max divergence:  0.31E+01 at (  14,   1,   6)
       Min divergence: -0.51E+01 at (  14,   1,  14)
       Max div. error:  0.11E-05 at (  16,   1,   2)
       Max VN number:   0.11E-01 at (   7,   1,   7)
       Mesh    3
       Max CFL number:  0.47E+00 at (  13,   1,  13)
       Max divergence:  0.31E+01 at (  14,   1,   6)
       Min divergence: -0.51E+01 at (  14,   1,  14)
       Max div. error:  0.11E-05 at (  16,   1,   2)
       Max VN number:   0.11E-01 at (   7,   1,   7)
       Mesh    4
       Max CFL number:  0.47E+00 at (  13,   1,  13)
       Max divergence:  0.31E+01 at (  14,   1,   6)
       Min divergence: -0.51E+01 at (  14,   1,  14)
       Max div. error:  0.11E-05 at (  16,   1,   2)
       Max VN number:   0.11E-01 at (   7,   1,   7)
 
       Time Step      20   November  6, 2018  11:15:01
       Step Size:    0.177E-01 s, Total Time:       0.37 s
       Pressure Iterations:      1
       Maximum Velocity Error:  0.11E-15 on Mesh   1 at (   6   1  17)
       Maximum Pressure Error:  0.00E+00 on Mesh   1 at (   0   0   0)
       ScaRC: iterations    25, residual  0.47E-08, convergence rate   0.39E+00
       ---------------------------------------------------------------
       Mesh    1
       Max CFL number:  0.47E+00 at (   8,   1,  16)
       Max divergence:  0.52E+01 at (  15,   1,   7)
       Min divergence: -0.21E+01 at (   7,   1,   7)
       Max div. error:  0.23E-05 at (   1,   1,  16)
       Max VN number:   0.15E-01 at (  15,   1,   7)
       Mesh    2
       Max CFL number:  0.47E+00 at (   8,   1,  16)
       Max divergence:  0.52E+01 at (  15,   1,   7)
       Min divergence: -0.21E+01 at (   7,   1,   7)
       Max div. error:  0.23E-05 at (   1,   1,  16)
       Max VN number:   0.15E-01 at (  15,   1,   7)
       Mesh    3
       Max CFL number:  0.47E+00 at (   8,   1,  16)
       Max divergence:  0.52E+01 at (  15,   1,   7)
       Min divergence: -0.21E+01 at (   7,   1,   7)
       Max div. error:  0.23E-05 at (   1,   1,  16)
       Max VN number:   0.15E-01 at (  15,   1,   7)
       Mesh    4
       Max CFL number:  0.47E+00 at (   8,   1,  16)
       Max divergence:  0.52E+01 at (  15,   1,   7)
       Min divergence: -0.21E+01 at (   7,   1,   7)
       Max div. error:  0.23E-05 at (   1,   1,  16)
       Max VN number:   0.15E-01 at (  15,   1,   7)
 
       Time Step      30   November  6, 2018  11:15:01
       Step Size:    0.197E-01 s, Total Time:       0.57 s
       Pressure Iterations:      1
       Maximum Velocity Error:  0.56E-16 on Mesh   1 at (   2   1   0)
       Maximum Pressure Error:  0.00E+00 on Mesh   1 at (   0   0   0)
       ScaRC: iterations    25, residual  0.92E-08, convergence rate   0.39E+00
       ---------------------------------------------------------------
       Mesh    1
       Max CFL number:  0.44E+00 at (  16,   1,   8)
       Max divergence:  0.10E+01 at (   1,   1,   1)
       Min divergence: -0.42E+01 at (   9,   1,   1)
       Max div. error:  0.63E-06 at (  16,   1,  10)
       Max VN number:   0.21E-01 at (   1,   1,   9)
       Mesh    2
       Max CFL number:  0.44E+00 at (  16,   1,   8)
       Max divergence:  0.10E+01 at (   1,   1,   1)
       Min divergence: -0.42E+01 at (   9,   1,   1)
       Max div. error:  0.63E-06 at (  16,   1,  10)
       Max VN number:   0.21E-01 at (   1,   1,   9)
       Mesh    3
       Max CFL number:  0.44E+00 at (  16,   1,   8)
       Max divergence:  0.10E+01 at (   1,   1,   1)
       Min divergence: -0.42E+01 at (   9,   1,   1)
       Max div. error:  0.63E-06 at (  16,   1,  10)
       Max VN number:   0.21E-01 at (   1,   1,   9)
       Mesh    4
       Max CFL number:  0.44E+00 at (  16,   1,   8)
       Max divergence:  0.10E+01 at (   1,   1,   1)
       Min divergence: -0.42E+01 at (   9,   1,   1)
       Max div. error:  0.63E-06 at (  16,   1,  10)
       Max VN number:   0.21E-01 at (   1,   1,   9)
 
       Time Step      40   November  6, 2018  11:15:04
       Step Size:    0.177E-01 s, Total Time:       0.74 s
       Pressure Iterations:      1
       Maximum Velocity Error:  0.11E-15 on Mesh   1 at (   0   1   9)
       Maximum Pressure Error:  0.00E+00 on Mesh   1 at (   0   0   0)
       ScaRC: iterations    26, residual  0.11E-08, convergence rate   0.37E+00
       ---------------------------------------------------------------
       Mesh    1
       Max CFL number:  0.45E+00 at (   9,   1,   1)
       Max divergence:  0.40E+01 at (   2,   1,   2)
       Min divergence: -0.41E+01 at (   2,   1,  10)
       Max div. error:  0.26E-05 at (   1,   1,  14)
       Max VN number:   0.88E-02 at (  12,   1,   4)
       Mesh    2
       Max CFL number:  0.45E+00 at (   9,   1,   1)
       Max divergence:  0.40E+01 at (   2,   1,   2)
       Min divergence: -0.41E+01 at (   2,   1,  10)
       Max div. error:  0.26E-05 at (   1,   1,  14)
       Max VN number:   0.88E-02 at (  12,   1,   4)
       Mesh    3
       Max CFL number:  0.45E+00 at (   9,   1,   1)
       Max divergence:  0.40E+01 at (   2,   1,   2)
       Min divergence: -0.41E+01 at (   2,   1,  10)
       Max div. error:  0.26E-05 at (   1,   1,  14)
       Max VN number:   0.88E-02 at (  12,   1,   4)
       Mesh    4
       Max CFL number:  0.45E+00 at (   9,   1,   1)
       Max divergence:  0.40E+01 at (   2,   1,   2)
       Min divergence: -0.41E+01 at (   2,   1,  10)
       Max div. error:  0.26E-05 at (   1,   1,  14)
       Max VN number:   0.88E-02 at (  12,   1,   4)
 
       Time Step      50   November  6, 2018  11:15:07
       Step Size:    0.177E-01 s, Total Time:       0.92 s
       Pressure Iterations:      1
       Maximum Velocity Error:  0.11E-15 on Mesh   1 at (  17   1  10)
       Maximum Pressure Error:  0.00E+00 on Mesh   1 at (   0   0   0)
       ScaRC: iterations    24, residual  0.60E-08, convergence rate   0.37E+00
       ---------------------------------------------------------------
       Mesh    1
       Max CFL number:  0.42E+00 at (   4,   1,   4)
       Max divergence:  0.48E+01 at (   4,   1,   4)
       Min divergence: -0.13E+01 at (   4,   1,  12)
       Max div. error:  0.11E-06 at (  16,   1,  11)
       Max VN number:   0.20E-01 at (   4,   1,   4)
       Mesh    2
       Max CFL number:  0.42E+00 at (   4,   1,   4)
       Max divergence:  0.48E+01 at (   4,   1,   4)
       Min divergence: -0.13E+01 at (   4,   1,  12)
       Max div. error:  0.11E-06 at (  16,   1,  11)
       Max VN number:   0.20E-01 at (   4,   1,   4)
       Mesh    3
       Max CFL number:  0.42E+00 at (   4,   1,   4)
       Max divergence:  0.48E+01 at (   4,   1,   4)
       Min divergence: -0.13E+01 at (   4,   1,  12)
       Max div. error:  0.11E-06 at (  16,   1,  11)
       Max VN number:   0.20E-01 at (   4,   1,   4)
       Mesh    4
       Max CFL number:  0.42E+00 at (   4,   1,   4)
       Max divergence:  0.48E+01 at (   4,   1,   4)
       Min divergence: -0.13E+01 at (   4,   1,  12)
       Max div. error:  0.11E-06 at (  16,   1,  11)
       Max VN number:   0.20E-01 at (   4,   1,   4)
 
       Time Step      55   November  6, 2018  11:15:09
       Step Size:    0.728E-03 s, Total Time:       1.00 s
       Pressure Iterations:      1
       Maximum Velocity Error:  0.56E-16 on Mesh   1 at (  10   1   0)
       Maximum Pressure Error:  0.00E+00 on Mesh   1 at (   0   0   0)
       ScaRC: iterations    24, residual  0.85E-08, convergence rate   0.38E+00
       ---------------------------------------------------------------
       Mesh    1
       Max CFL number:  0.12E-01 at (  11,   1,   3)
       Max divergence:  0.51E-01 at (   5,   1,   5)
       Min divergence: -0.24E-01 at (   3,   1,   6)
       Max div. error:  0.52E-06 at (   9,   1,  16)
       Max VN number:   0.94E-03 at (   4,   1,   4)
       Mesh    2
       Max CFL number:  0.12E-01 at (  11,   1,   3)
       Max divergence:  0.51E-01 at (   5,   1,   5)
       Min divergence: -0.24E-01 at (   3,   1,   6)
       Max div. error:  0.52E-06 at (   9,   1,  16)
       Max VN number:   0.94E-03 at (   4,   1,   4)
       Mesh    3
       Max CFL number:  0.12E-01 at (  11,   1,   3)
       Max divergence:  0.51E-01 at (   5,   1,   5)
       Min divergence: -0.24E-01 at (   3,   1,   6)
       Max div. error:  0.52E-06 at (   9,   1,  16)
       Max VN number:   0.94E-03 at (   4,   1,   4)
       Mesh    4
       Max CFL number:  0.12E-01 at (  11,   1,   3)
       Max divergence:  0.51E-01 at (   5,   1,   5)
       Min divergence: -0.24E-01 at (   3,   1,   6)
       Max div. error:  0.52E-06 at (   9,   1,   1)
       Max VN number:   0.94E-03 at (   4,   1,   4)
 


 Time Stepping Wall Clock Time (s):       12.405
 Total Elapsed Wall Clock Time (s):       12.723

STOP: FDS completed successfully (CHID: shunn3_4mesh_32_scarc)
