Frap_303a_FDS674_M16_BO-1_v01d.fds
Generated by PyroSim - Version 2020.4.0902
11.11.2020 15:28:01

&HEAD CHID='Frap_303a_FDS674_M5_BO-1_v01d', TITLE='Flughafen Frankfurt, Flugsteig A-West, 303a. maschineller RA'/
&TIME T_END=1200.0/
&DUMP COLUMN_DUMP_LIMIT=.TRUE., DT_PL3D=60.0, DT_SLCF=1.0, NFRAMES=1200, WRITE_XYZ=.TRUE., PLOT3D_QUANTITY='VELOCITY','U-VELOCITY','V-VELOCITY','W-VELOCITY','VISIBILITY'/
&MISC Y_O2_INFTY=0.23, VISIBILITY_FACTOR=5.0/

&MESH ID='Mesh-02-merged-a', IJK=77,310,44, XB=5.75,15.375,-9.75,29.0,-0.25,5.25/
&MESH ID='Mesh-02-merged-b', IJK=103,310,44, XB=15.375,28.25,-9.75,29.0,-0.25,5.25/
&MESH ID='Mesh-05-merged', IJK=122,392,44, XB=28.25,43.5,-15.5,33.5,-0.25,5.25/
&MESH ID='Mesh-09-merged', IJK=134,392,44, XB=43.5,60.25,-15.5,33.5,-0.25,5.25/
&MESH ID='Mesh-14-merged', IJK=139,260,44, XB=60.25,77.625,1.0,33.5,-0.25,5.25/


&REAC ID='Mischbrand',
      FYI='Mischbrandlast 06B407-2011',
      FUEL='REAC_FUEL',
      C=1.0,
      H=1.2,
      O=0.254,
      N=0.0508,
      CRITICAL_FLAME_TEMPERATURE=1327.0,
      AUTO_IGNITION_TEMPERATURE=0.0,
      CO_YIELD=0.034,
      SOOT_YIELD=0.09,
      HEAT_OF_COMBUSTION=2.3632E4,
      RADIATIVE_FRACTION=0.3/

&PROP ID='Cleary Photoelectric P1',
      QUANTITY='CHAMBER OBSCURATION',
      ALPHA_E=1.8,
      BETA_E=-1.0,
      ALPHA_C=1.0,
      BETA_C=-0.8/
&CTRL ID='TIMER Tor', FUNCTION_TYPE='TIME_DELAY', DELAY=30.0, LATCH=.FALSE., INPUT_ID='latch'/
&CTRL ID='latch', FUNCTION_TYPE='ALL', LATCH=.TRUE., INPUT_ID='or'/
&CTRL ID='or', FUNCTION_TYPE='ANY', LATCH=.FALSE., INPUT_ID='SD_RS1','SD_RS2'/
&CTRL ID='Timer RS', FUNCTION_TYPE='TIME_DELAY', DELAY=30.0, LATCH=.FALSE., INPUT_ID='latch-2'/
&CTRL ID='latch-2', FUNCTION_TYPE='ALL', LATCH=.TRUE., INPUT_ID='or-2'/
&CTRL ID='or-2', FUNCTION_TYPE='ANY', LATCH=.FALSE., INPUT_ID='SD_RS1','SD_RS2','SD_RS3','SD_RS4'/
&DEVC ID='OD_2.5_Pos-00', QUANTITY='OPTICAL DENSITY', XYZ=15.936769,28.439147,2.51/
&DEVC ID='OD_2.5_Pos-01', QUANTITY='OPTICAL DENSITY', XYZ=31.436769,32.939147,2.51/
&DEVC ID='OD_2.5_Pos-02', QUANTITY='OPTICAL DENSITY', XYZ=68.309318,26.561696,2.51/
&DEVC ID='OD_2.5_Pos-03', QUANTITY='OPTICAL DENSITY', XYZ=76.186769,18.689147,2.51/
&DEVC ID='OD_2.5_Pos-04', QUANTITY='OPTICAL DENSITY', XYZ=65.686769,7.439147,2.51/
&DEVC ID='OD_2.5_Pos-05', QUANTITY='OPTICAL DENSITY', XYZ=44.436769,-13.810853,2.51/
&DEVC ID='OD_2.5_Pos-06', QUANTITY='OPTICAL DENSITY', XYZ=29.186769,4.439147,2.51/
&DEVC ID='OD_2.5_Pos-07', QUANTITY='OPTICAL DENSITY', XYZ=29.186769,21.439147,2.51/
&DEVC ID='OD_2.5_Pos-08', QUANTITY='OPTICAL DENSITY', XYZ=27.686769,4.189147,2.51/
&DEVC ID='OD_2.5_Pos-09', QUANTITY='OPTICAL DENSITY', XYZ=27.436769,21.439147,2.51/
&DEVC ID='OD_2.0_Pos-00', QUANTITY='OPTICAL DENSITY', XYZ=15.936769,28.439147,2.01/
&DEVC ID='OD_2.0_Pos-01', QUANTITY='OPTICAL DENSITY', XYZ=31.436769,32.939147,2.01/
&DEVC ID='OD_2.0_Pos-02', QUANTITY='OPTICAL DENSITY', XYZ=68.309318,26.561696,2.01/
&DEVC ID='OD_2.0_Pos-03', QUANTITY='OPTICAL DENSITY', XYZ=76.186769,18.689147,2.01/
&DEVC ID='OD_2.0_Pos-04', QUANTITY='OPTICAL DENSITY', XYZ=65.686769,7.439147,2.01/
&DEVC ID='OD_2.0_Pos-05', QUANTITY='OPTICAL DENSITY', XYZ=44.436769,-13.810853,2.01/
&DEVC ID='OD_2.0_Pos-06', QUANTITY='OPTICAL DENSITY', XYZ=29.186769,4.439147,2.01/
&DEVC ID='OD_2.0_Pos-07', QUANTITY='OPTICAL DENSITY', XYZ=29.186769,21.439147,2.01/
&DEVC ID='OD_2.0_Pos-08', QUANTITY='OPTICAL DENSITY', XYZ=27.686769,4.189147,2.01/
&DEVC ID='OD_2.0_Pos-09', QUANTITY='OPTICAL DENSITY', XYZ=27.436769,21.439147,2.01/
&DEVC ID='SD_Tor_1', PROP_ID='Cleary Photoelectric P1', XYZ=69.183363,22.938553,4.065/
&DEVC ID='SD_Tor_2', PROP_ID='Cleary Photoelectric P1', XYZ=62.929277,28.690238,4.065/
&DEVC ID='SD_RS1', PROP_ID='Cleary Photoelectric P1', XYZ=29.064382,23.065061,3.83/
&DEVC ID='SD_RS2', PROP_ID='Cleary Photoelectric P1', XYZ=29.170178,11.820712,3.83/
&DEVC ID='SD_RS3', PROP_ID='Cleary Photoelectric P1', XYZ=29.068208,1.936101,3.83/
&DEVC ID='SD_RS4', PROP_ID='Cleary Photoelectric P1', XYZ=29.063413,-6.554273,3.83/

&MATL ID='CONCRETE',
      FYI='Stahlbeton C30-C37 WU',
      SPECIFIC_HEAT=1.0,
      CONDUCTIVITY=2.1,
      DENSITY=2400.0/
&MATL ID='GYPSUM',
      FYI='Quintiere - Principles of fire behaviour',
      SPECIFIC_HEAT=0.84,
      CONDUCTIVITY=0.48,
      DENSITY=1440.0/
&MATL ID='CALCIUM SILICATE',
      FYI='NBSIR 88-3752 - NBS Multi-Room Validation',
      SPECIFIC_HEAT_RAMP='CALCIUM SILICATE_SPECIFIC_HEAT_RAMP',
      CONDUCTIVITY=0.12,
      DENSITY=720.0,
      EMISSIVITY=0.83/
&RAMP ID='CALCIUM SILICATE_SPECIFIC_HEAT_RAMP', T=20.0, F=1.25/
&RAMP ID='CALCIUM SILICATE_SPECIFIC_HEAT_RAMP', T=200.0, F=1.25/
&RAMP ID='CALCIUM SILICATE_SPECIFIC_HEAT_RAMP', T=300.0, F=1.33/
&RAMP ID='CALCIUM SILICATE_SPECIFIC_HEAT_RAMP', T=600.0, F=1.55/
&MATL ID='STEEL',
      FYI='Drysdale, Intro to Fire Dynamics - ATF NIST Multi-Floor Validation',
      SPECIFIC_HEAT=0.46,
      CONDUCTIVITY=45.8,
      DENSITY=7850.0,
      EMISSIVITY=0.95/
&MATL ID='GLASS',
      FYI='Verfahrenstechnik',
      SPECIFIC_HEAT=0.82,
      CONDUCTIVITY=0.75,
      DENSITY=2500.0/

&SURF ID='BETON',
      COLOR='GRAY 60',
      BACKING='VOID',
      MATL_ID(1,1)='CONCRETE',
      MATL_MASS_FRACTION(1,1)=1.0,
      THICKNESS(1)=0.1,
      GEOMETRY='CARTESIAN',
      LENGTH=0.0,
      WIDTH=0.0/
&SURF ID='Beton Stuetze Unterzug',
      COLOR='GRAY 40',
      BACKING='VOID',
      MATL_ID(1,1)='CONCRETE',
      MATL_MASS_FRACTION(1,1)=1.0,
      THICKNESS(1)=0.1,
      GEOMETRY='CARTESIAN',
      LENGTH=0.0,
      WIDTH=0.0/
&SURF ID='Gipsplatte 15mm',
      RGB=153,153,255,
      BACKING='VOID',
      MATL_ID(1,1)='GYPSUM',
      MATL_MASS_FRACTION(1,1)=1.0,
      THICKNESS(1)=0.015,
      GEOMETRY='CARTESIAN',
      LENGTH=0.0,
      WIDTH=0.0/
&SURF ID='Calciumsilikatplatte 15mm',
      RGB=146,202,166,
      BACKING='VOID',
      MATL_ID(1,1)='CALCIUM SILICATE',
      MATL_MASS_FRACTION(1,1)=1.0,
      THICKNESS(1)=0.015/
&SURF ID='Kanal_L',
      RGB=51,153,255,
      BACKING='VOID',
      MATL_ID(1,1)='STEEL',
      MATL_MASS_FRACTION(1,1)=1.0,
      THICKNESS(1)=5.0E-3,
      GEOMETRY='CARTESIAN',
      LENGTH=0.0,
      WIDTH=0.0/
&SURF ID='Kanal_ENTR',
      RGB=255,0,255,
      TRANSPARENCY=0.784314,
      BACKING='VOID',
      MATL_ID(1,1)='STEEL',
      MATL_MASS_FRACTION(1,1)=1.0,
      THICKNESS(1)=5.0E-3,
      GEOMETRY='CARTESIAN',
      LENGTH=0.0,
      WIDTH=0.0/
&SURF ID='ENT_1368m3h',
      COLOR='BLACK',
      VOLUME_FLOW=0.38,
      RAMP_V='ENT_1368m3h_RAMP_V'/
&RAMP ID='ENT_1368m3h_RAMP_V', T=0.0, F=0.0/
&RAMP ID='ENT_1368m3h_RAMP_V', T=120.0, F=0.0/
&RAMP ID='ENT_1368m3h_RAMP_V', T=180.0, F=1.0/
&RAMP ID='ENT_1368m3h_RAMP_V', T=3600.0, F=1.0/
&SURF ID='ENT_1656m3h',
      COLOR='BLACK',
      VOLUME_FLOW=0.46,
      RAMP_V='ENT_1656m3h_RAMP_V'/
&RAMP ID='ENT_1656m3h_RAMP_V', T=0.0, F=0.0/
&RAMP ID='ENT_1656m3h_RAMP_V', T=120.0, F=0.0/
&RAMP ID='ENT_1656m3h_RAMP_V', T=180.0, F=1.0/
&RAMP ID='ENT_1656m3h_RAMP_V', T=3600.0, F=1.0/
&SURF ID='ENT_1296m3h',
      COLOR='BLACK',
      VOLUME_FLOW=0.36,
      RAMP_V='ENT_1296m3h_RAMP_V'/
&RAMP ID='ENT_1296m3h_RAMP_V', T=0.0, F=0.0/
&RAMP ID='ENT_1296m3h_RAMP_V', T=120.0, F=0.0/
&RAMP ID='ENT_1296m3h_RAMP_V', T=180.0, F=1.0/
&RAMP ID='ENT_1296m3h_RAMP_V', T=3600.0, F=1.0/
&SURF ID='ENT_1512m3h',
      COLOR='BLACK',
      VOLUME_FLOW=0.42,
      RAMP_V='ENT_1512m3h_RAMP_V'/
&RAMP ID='ENT_1512m3h_RAMP_V', T=0.0, F=0.0/
&RAMP ID='ENT_1512m3h_RAMP_V', T=120.0, F=0.0/
&RAMP ID='ENT_1512m3h_RAMP_V', T=180.0, F=1.0/
&RAMP ID='ENT_1512m3h_RAMP_V', T=3600.0, F=1.0/
&SURF ID='ENT_1224m3h',
      COLOR='BLACK',
      VOLUME_FLOW=0.34,
      RAMP_V='ENT_1224m3h_RAMP_V'/
&RAMP ID='ENT_1224m3h_RAMP_V', T=0.0, F=0.0/
&RAMP ID='ENT_1224m3h_RAMP_V', T=120.0, F=0.0/
&RAMP ID='ENT_1224m3h_RAMP_V', T=180.0, F=1.0/
&RAMP ID='ENT_1224m3h_RAMP_V', T=3600.0, F=1.0/
&SURF ID='ENT_1872m3h',
      COLOR='BLACK',
      VOLUME_FLOW=0.52,
      RAMP_V='ENT_1872m3h_RAMP_V'/
&RAMP ID='ENT_1872m3h_RAMP_V', T=0.0, F=0.0/
&RAMP ID='ENT_1872m3h_RAMP_V', T=120.0, F=0.0/
&RAMP ID='ENT_1872m3h_RAMP_V', T=180.0, F=1.0/
&RAMP ID='ENT_1872m3h_RAMP_V', T=3600.0, F=1.0/
&SURF ID='ENT_2160m3h',
      COLOR='BLACK',
      VOLUME_FLOW=0.6,
      RAMP_V='ENT_2160m3h_RAMP_V'/
&RAMP ID='ENT_2160m3h_RAMP_V', T=0.0, F=0.0/
&RAMP ID='ENT_2160m3h_RAMP_V', T=120.0, F=0.0/
&RAMP ID='ENT_2160m3h_RAMP_V', T=180.0, F=1.0/
&RAMP ID='ENT_2160m3h_RAMP_V', T=3600.0, F=1.0/
&SURF ID='ENT_1728m3h',
      COLOR='BLACK',
      VOLUME_FLOW=0.48,
      RAMP_V='ENT_1728m3h_RAMP_V'/
&RAMP ID='ENT_1728m3h_RAMP_V', T=0.0, F=0.0/
&RAMP ID='ENT_1728m3h_RAMP_V', T=120.0, F=0.0/
&RAMP ID='ENT_1728m3h_RAMP_V', T=180.0, F=1.0/
&RAMP ID='ENT_1728m3h_RAMP_V', T=3600.0, F=1.0/
&SURF ID='ENT_1080m3h',
      COLOR='BLACK',
      VOLUME_FLOW=0.3,
      RAMP_V='ENT_1080m3h_RAMP_V'/
&RAMP ID='ENT_1080m3h_RAMP_V', T=0.0, F=0.0/
&RAMP ID='ENT_1080m3h_RAMP_V', T=120.0, F=0.0/
&RAMP ID='ENT_1080m3h_RAMP_V', T=180.0, F=1.0/
&RAMP ID='ENT_1080m3h_RAMP_V', T=3600.0, F=1.0/
&SURF ID='ENT_288m3h',
      COLOR='BLACK',
      VOLUME_FLOW=0.08,
      RAMP_V='ENT_288m3h_RAMP_V'/
&RAMP ID='ENT_288m3h_RAMP_V', T=0.0, F=0.0/
&RAMP ID='ENT_288m3h_RAMP_V', T=120.0, F=0.0/
&RAMP ID='ENT_288m3h_RAMP_V', T=180.0, F=1.0/
&RAMP ID='ENT_288m3h_RAMP_V', T=3600.0, F=1.0/
&SURF ID='ENT_720m3h',
      COLOR='BLACK',
      VOLUME_FLOW=0.2,
      RAMP_V='ENT_720m3h_RAMP_V'/
&RAMP ID='ENT_720m3h_RAMP_V', T=0.0, F=0.0/
&RAMP ID='ENT_720m3h_RAMP_V', T=120.0, F=0.0/
&RAMP ID='ENT_720m3h_RAMP_V', T=180.0, F=1.0/
&RAMP ID='ENT_720m3h_RAMP_V', T=3600.0, F=1.0/
&SURF ID='ENT_936m3h',
      COLOR='BLACK',
      VOLUME_FLOW=0.26,
      RAMP_V='ENT_936m3h_RAMP_V'/
&RAMP ID='ENT_936m3h_RAMP_V', T=0.0, F=0.0/
&RAMP ID='ENT_936m3h_RAMP_V', T=120.0, F=0.0/
&RAMP ID='ENT_936m3h_RAMP_V', T=180.0, F=1.0/
&RAMP ID='ENT_936m3h_RAMP_V', T=3600.0, F=1.0/
&SURF ID='ENT_864m3h',
      COLOR='BLACK',
      VOLUME_FLOW=0.24,
      RAMP_V='ENT_864m3h_RAMP_V'/
&RAMP ID='ENT_864m3h_RAMP_V', T=0.0, F=0.0/
&RAMP ID='ENT_864m3h_RAMP_V', T=120.0, F=0.0/
&RAMP ID='ENT_864m3h_RAMP_V', T=180.0, F=1.0/
&RAMP ID='ENT_864m3h_RAMP_V', T=3600.0, F=1.0/
&SURF ID='ENT_1152m3h',
      COLOR='BLACK',
      VOLUME_FLOW=0.32,
      RAMP_V='ENT_1152m3h_RAMP_V'/
&RAMP ID='ENT_1152m3h_RAMP_V', T=0.0, F=0.0/
&RAMP ID='ENT_1152m3h_RAMP_V', T=120.0, F=0.0/
&RAMP ID='ENT_1152m3h_RAMP_V', T=180.0, F=1.0/
&RAMP ID='ENT_1152m3h_RAMP_V', T=3600.0, F=1.0/
&SURF ID='ENT_1008m3h',
      COLOR='BLACK',
      VOLUME_FLOW=0.28,
      RAMP_V='ENT_1008m3h_RAMP_V'/
&RAMP ID='ENT_1008m3h_RAMP_V', T=0.0, F=0.0/
&RAMP ID='ENT_1008m3h_RAMP_V', T=120.0, F=0.0/
&RAMP ID='ENT_1008m3h_RAMP_V', T=180.0, F=1.0/
&RAMP ID='ENT_1008m3h_RAMP_V', T=3600.0, F=1.0/
&SURF ID='ENT_680m3h',
      COLOR='BLACK',
      VOLUME_FLOW=0.1889,
      RAMP_V='ENT_680m3h_RAMP_V'/
&RAMP ID='ENT_680m3h_RAMP_V', T=0.0, F=0.0/
&RAMP ID='ENT_680m3h_RAMP_V', T=120.0, F=0.0/
&RAMP ID='ENT_680m3h_RAMP_V', T=180.0, F=1.0/
&RAMP ID='ENT_680m3h_RAMP_V', T=3600.0, F=1.0/
&SURF ID='GLAS',
      RGB=0,180,213,
      TRANSPARENCY=0.701961,
      BACKING='VOID',
      MATL_ID(1,1)='GLASS',
      MATL_MASS_FRACTION(1,1)=1.0,
      THICKNESS(1)=0.01,
      GEOMETRY='CARTESIAN',
      LENGTH=0.0,
      WIDTH=0.0/
&SURF ID='Burner alt',
      COLOR='RED',
      HRRPUA=583.53,
      TAU_Q=-370.0/

&OBST ID='Boden', XB=-14.5,29.0,-19.5,29.25,-0.25,0.0, COLOR='INVISIBLE', SURF_ID='BETON'/ 
&OBST ID='Decke_UK 5.0', XB=-14.5,29.0,-19.5,29.25,5.0,5.25, COLOR='INVISIBLE', SURF_ID='BETON'/ 
&OBST ID='St_[1][1][1][1]', XB=43.25,43.75,30.25,30.75,0.0,5.0, SURF_ID='Beton Stuetze Unterzug'/ 
&OBST ID='St_[1][1][1][1]', XB=43.0,43.5,18.75,19.25,0.0,5.0, SURF_ID='Beton Stuetze Unterzug'/ 
&OBST ID='St_[1][1][1][1]', XB=43.0,43.5,7.0,7.5,0.0,5.0, SURF_ID='Beton Stuetze Unterzug'/ 
&OBST ID='St_[1][1][1][1]', XB=48.5,49.0,1.5,2.0,0.0,5.0, SURF_ID='Beton Stuetze Unterzug'/ 
&OBST ID='St_[1][1][1][1]', XB=53.25,53.75,6.25,6.75,0.0,5.0, SURF_ID='Beton Stuetze Unterzug'/ 
&OBST ID='St_[1][1][1][1]', XB=57.5,58.0,18.75,19.25,0.0,5.0, SURF_ID='Beton Stuetze Unterzug'/ 
&OBST ID='St_[1][1][1][1]', XB=72.0,72.5,18.75,19.25,0.0,5.0, SURF_ID='Beton Stuetze Unterzug'/ 
&OBST ID='St_[1][1][1][1]', XB=53.25,53.75,-3.5,-3.0,0.0,5.0, SURF_ID='Beton Stuetze Unterzug'/ 
&OBST ID='St_[1][1][1][1]', XB=58.25,58.75,1.25,1.75,0.0,5.0, SURF_ID='Beton Stuetze Unterzug'/ 
&OBST ID='St_[1][1][1][1]', XB=63.5,64.0,6.75,7.25,0.0,5.0, SURF_ID='Beton Stuetze Unterzug'/ 
&OBST ID='St_[1][1][1][1]', XB=48.0,48.5,-9.0,-8.5,0.0,5.0, SURF_ID='Beton Stuetze Unterzug'/ 
&OBST ID='St_[1][1][1][1]', XB=57.5,58.0,30.25,30.75,0.0,5.0, SURF_ID='Beton Stuetze Unterzug'/ 
&OBST ID='St_[1][1][1][1]', XB=72.0,72.5,28.5,29.0,0.0,5.0, SURF_ID='Beton Stuetze Unterzug'/ 
&OBST ID='St_[1][1][1][1]', XB=28.75,29.25,18.75,19.25,0.0,5.0, SURF_ID='Beton Stuetze Unterzug'/ 
&OBST ID='st_6', XB=-9.0,-8.5,5.5,6.0,0.0,5.0, SURF_ID='Beton Stuetze Unterzug'/ 
&OBST ID='st_6', XB=-0.5,0.0,10.0,10.5,0.0,5.0, SURF_ID='Beton Stuetze Unterzug'/ 
&OBST ID='St_204a[1]', XB=14.75,15.25,-12.75,-12.25,0.0,5.0, SURF_ID='Beton Stuetze Unterzug'/ 
&OBST ID='st_4', XB=8.0,8.5,5.5,6.0,0.0,5.0, SURF_ID='Beton Stuetze Unterzug'/ 
&OBST ID='st_3', XB=8.0,8.5,-6.0,-5.5,0.0,5.0, SURF_ID='Beton Stuetze Unterzug'/ 
&OBST ID='St_1', XB=-9.0,-8.5,-6.0,-5.5,0.0,5.0, SURF_ID='Beton Stuetze Unterzug'/ 
&OBST ID='st_2', XB=-0.5,0.0,-10.5,-10.0,0.0,5.0, SURF_ID='Beton Stuetze Unterzug'/ 
&OBST ID='St_[1][1]', XB=-0.25,0.25,19.75,20.25,0.0,5.0, SURF_ID='Beton Stuetze Unterzug'/ 
&OBST ID='St_[1][1][1]', XB=14.25,14.75,18.75,19.25,0.0,5.0, SURF_ID='Beton Stuetze Unterzug'/ 
&OBST ID='St_[1][1][1]', XB=-15.75,-15.25,41.12,41.62,0.0,5.0, SURF_ID='Beton Stuetze Unterzug'/ 
&OBST ID='St_[1][1][1][1]', XB=17.75,18.25,6.75,7.25,0.0,5.0, SURF_ID='Beton Stuetze Unterzug'/ 
&OBST ID='St_[1][1][1][1][1]', XB=17.75,18.25,-4.0,-3.5,0.0,5.0, SURF_ID='Beton Stuetze Unterzug'/ 
&OBST ID='St_[1][1][1][1]', XB=28.75,29.25,6.75,7.25,0.0,5.0, SURF_ID='Beton Stuetze Unterzug'/ 
&OBST ID='St_[1][1][1][1][1]', XB=28.75,29.25,-4.0,-3.5,0.0,5.0, SURF_ID='Beton Stuetze Unterzug'/ 
&OBST ID='Wall_in', XB=3.25,3.75,-19.25,-18.75,0.0,5.0, SURF_ID='Beton Stuetze Unterzug'/ 
&OBST ID='St_[1][1][1][1]', XB=43.0,43.5,-3.75,-3.25,0.0,5.0, SURF_ID='Beton Stuetze Unterzug'/ 
&OBST ID='St_[1][1][1][1]', XB=36.25,36.75,-10.5,-10.0,0.0,5.0, SURF_ID='Beton Stuetze Unterzug'/ 
&OBST ID='Wall_8', XB=-26.0,-25.5,3.5,4.0,0.0,5.0, SURF_ID='BETON'/ 
&OBST ID='Wall_8', XB=-25.75,-25.25,3.25,3.5,0.0,5.0, SURF_ID='BETON'/ 
&OBST ID='Wall_8', XB=-25.75,-25.0,3.0,3.25,0.0,5.0, SURF_ID='BETON'/ 
&OBST ID='Wall_8', XB=-25.5,-25.0,2.75,3.0,0.0,5.0, SURF_ID='BETON'/ 
&OBST ID='Wall_8', XB=-25.5,-24.75,2.5,2.75,0.0,5.0, SURF_ID='BETON'/ 
&OBST ID='Wall_8', XB=-25.25,-24.75,2.25,2.5,0.0,5.0, SURF_ID='BETON'/ 
&OBST ID='Wall_8', XB=-25.25,-24.5,2.0,2.25,0.0,5.0, SURF_ID='BETON'/ 
&OBST ID='Wall_8', XB=-25.0,-24.5,1.75,2.0,0.0,5.0, SURF_ID='BETON'/ 
&OBST ID='Wall_8', XB=-24.75,-24.25,1.5,1.75,0.0,5.0, SURF_ID='BETON'/ 
&OBST ID='Wall_8', XB=-24.75,-24.0,1.25,1.5,0.0,5.0, SURF_ID='BETON'/ 
&OBST ID='Wall_8', XB=-24.75,-23.87,1.0,1.25,0.0,5.0, SURF_ID='BETON'/ 
&OBST ID='Wall_8', XB=-24.5,-23.75,0.75,1.0,0.0,5.0, SURF_ID='BETON'/ 
&OBST ID='Wall_8', XB=-24.25,-23.75,0.25,0.75,0.0,5.0, SURF_ID='BETON'/ 
&OBST ID='Wall_9', XB=-13.5,-13.0,-20.0,-19.75,0.0,5.0, SURF_ID='BETON'/ 
&OBST ID='Wall_9', XB=-14.25,3.5,-19.75,-19.25,0.0,5.0, SURF_ID='BETON'/ 
&OBST ID='Wall_9', XB=-13.25,-12.75,-20.25,-20.0,0.0,5.0, SURF_ID='BETON'/ 
&OBST ID='Wall_9', XB=-13.0,-12.5,-20.75,-20.25,0.0,5.0, SURF_ID='BETON'/ 
&OBST ID='Wall_9', XB=-12.75,-12.25,-21.25,-20.75,0.0,5.0, SURF_ID='BETON'/ 
&OBST ID='Wall_9', XB=-12.5,-12.0,-21.75,-21.25,0.0,5.0, SURF_ID='BETON'/ 
&OBST ID='Wall_9', XB=-12.25,-11.75,-22.0,-21.75,0.0,5.0, SURF_ID='BETON'/ 
! ... 42 like lines cut
&OBST ID='Laden-Wand', XB=-6.0,-5.75,22.0,22.625,0.0,5.0, RGB=204,204,204, TRANSPARENCY=0.505882, SURF_ID='BETON'/ 
&OBST ID='Laden-Wand', XB=-5.75,-5.5,21.75,22.125,0.0,5.0, RGB=204,204,204, TRANSPARENCY=0.505882, SURF_ID='BETON'/ 
&OBST ID='Laden-Wand', XB=-5.75,-5.25,21.5,21.75,0.0,5.0, RGB=204,204,204, TRANSPARENCY=0.505882, SURF_ID='BETON'/ 
&OBST ID='Laden-Wand', XB=-5.5,-5.125,21.25,21.5,0.0,5.0, RGB=204,204,204, TRANSPARENCY=0.505882, SURF_ID='BETON'/ 
&OBST ID='Laden-Wand', XB=-5.25,-5.0,20.75,21.25,0.0,5.0, RGB=204,204,204, TRANSPARENCY=0.505882, SURF_ID='BETON'/ 
&OBST ID='Laden-Wand', XB=-5.0,-4.75,20.5,20.875,0.0,5.0, RGB=204,204,204, TRANSPARENCY=0.505882, SURF_ID='BETON'/ 
&OBST ID='Laden-Wand', XB=-5.0,-4.5,20.25,20.5,0.0,5.0, RGB=204,204,204, TRANSPARENCY=0.505882, SURF_ID='BETON'/ 
&OBST ID='Laden-Wand', XB=-4.75,-4.5,20.0,20.25,0.0,5.0, RGB=204,204,204, TRANSPARENCY=0.505882, SURF_ID='BETON'/ 
&OBST ID='Laden-Wand', XB=-4.5,-4.25,19.5,20.125,0.0,5.0, RGB=204,204,204, TRANSPARENCY=0.505882, SURF_ID='BETON'/ 
&OBST ID='Laden-Wand', XB=-12.0,-11.75,33.25,33.5,0.0,5.0, RGB=204,204,204, TRANSPARENCY=0.505882, SURF_ID='BETON'/ 
&OBST ID='Laden-Wand', XB=-11.75,-11.5,32.75,33.25,0.0,5.0, RGB=204,204,204, TRANSPARENCY=0.505882, SURF_ID='BETON'/ 
&OBST ID='Laden-Wand', XB=-11.5,-11.25,32.25,32.75,0.0,5.0, RGB=204,204,204, TRANSPARENCY=0.505882, SURF_ID='BETON'/ 
&OBST ID='Laden-Wand', XB=-11.25,-11.0,31.75,32.25,0.0,5.0, RGB=204,204,204, TRANSPARENCY=0.505882, SURF_ID='BETON'/ 
&OBST ID='Laden-Wand', XB=-11.0,-10.75,31.25,31.75,0.0,5.0, RGB=204,204,204, TRANSPARENCY=0.505882, SURF_ID='BETON'/ 
&OBST ID='Laden-Wand', XB=-10.75,-10.5,31.0,31.25,0.0,5.0, RGB=204,204,204, TRANSPARENCY=0.505882, SURF_ID='BETON'/ 
&OBST ID='Laden-Wand', XB=-10.75,-10.25,30.75,31.0,0.0,5.0, RGB=204,204,204, TRANSPARENCY=0.505882, SURF_ID='BETON'/ 
&OBST ID='Laden-Wand', XB=-10.5,-10.25,30.5,30.75,0.0,5.0, RGB=204,204,204, TRANSPARENCY=0.505882, SURF_ID='BETON'/ 
&OBST ID='Laden-Wand', XB=-10.5,-10.0,30.25,30.5,0.0,5.0, RGB=204,204,204, TRANSPARENCY=0.505882, SURF_ID='BETON'/ 
&OBST ID='Laden-Wand', XB=-10.25,-10.0,29.875,30.25,0.0,5.0, RGB=204,204,204, TRANSPARENCY=0.505882, SURF_ID='BETON'/ 
&OBST ID='Laden-Wand', XB=-10.0,-9.75,29.5,30.0,0.0,5.0, RGB=204,204,204, TRANSPARENCY=0.505882, SURF_ID='BETON'/ 
! ... 28 like lines cut
&OBST ID='Laden_Wand', XB=-16.5,-16.25,18.25,18.75,0.0,5.0, RGB=204,204,204, TRANSPARENCY=0.505882, SURF_ID='BETON'/ 
&OBST ID='Laden_Wand', XB=-16.25,-16.0,17.75,18.25,0.0,5.0, RGB=204,204,204, TRANSPARENCY=0.505882, SURF_ID='BETON'/ 
&OBST ID='Laden_Wand', XB=-16.0,-15.75,17.25,17.75,0.0,5.0, RGB=204,204,204, TRANSPARENCY=0.505882, SURF_ID='BETON'/ 
&OBST ID='Laden_Wand', XB=-15.75,-15.5,16.75,17.25,0.0,5.0, RGB=204,204,204, TRANSPARENCY=0.505882, SURF_ID='BETON'/ 
&OBST ID='Laden_Wand', XB=-18.0,-17.75,21.0,21.25,0.0,5.0, RGB=204,204,204, TRANSPARENCY=0.505882, SURF_ID='BETON'/ 
&OBST ID='Laden_Wand', XB=-17.75,-17.5,20.5,21.0,0.0,5.0, RGB=204,204,204, TRANSPARENCY=0.505882, SURF_ID='BETON'/ 
&OBST ID='Laden_Wand', XB=-17.5,-17.25,20.0,20.5,0.0,5.0, RGB=204,204,204, TRANSPARENCY=0.505882, SURF_ID='BETON'/ 
&OBST ID='Laden_Wand', XB=-17.25,-17.0,19.75,20.0,0.0,5.0, RGB=204,204,204, TRANSPARENCY=0.505882, SURF_ID='BETON'/ 
&OBST ID='Laden_Wand', XB=-17.25,-16.75,19.5,19.75,0.0,5.0, RGB=204,204,204, TRANSPARENCY=0.505882, SURF_ID='BETON'/ 
&OBST ID='Laden_Wand', XB=-17.0,-16.75,19.25,19.5,0.0,5.0, RGB=204,204,204, TRANSPARENCY=0.505882, SURF_ID='BETON'/ 
&OBST ID='Laden_Wand', XB=-17.0,-16.5,19.0,19.25,0.0,5.0, RGB=204,204,204, TRANSPARENCY=0.505882, SURF_ID='BETON'/ 
&OBST ID='Laden_Wand', XB=-16.75,-16.5,18.75,19.0,0.0,5.0, RGB=204,204,204, TRANSPARENCY=0.505882, SURF_ID='BETON'/ 
&OBST ID='Laden_Wand', XB=-15.5,-15.25,16.125,16.75,0.0,5.0, RGB=204,204,204, TRANSPARENCY=0.505882, SURF_ID='BETON'/ 
&OBST ID='Laden_Wand', XB=-15.25,-15.0,15.625,16.25,0.0,5.0, RGB=204,204,204, TRANSPARENCY=0.505882, SURF_ID='BETON'/ 
&OBST ID='Laden_Wand', XB=-15.0,-14.75,15.125,15.75,0.0,5.0, RGB=204,204,204, TRANSPARENCY=0.505882, SURF_ID='BETON'/ 
&OBST ID='Laden_Wand', XB=-14.75,-14.5,14.625,15.25,0.0,5.0, RGB=204,204,204, TRANSPARENCY=0.505882, SURF_ID='BETON'/ 
&OBST ID='Laden_Wand', XB=-14.5,-14.25,14.25,14.75,0.0,5.0, RGB=204,204,204, TRANSPARENCY=0.505882, SURF_ID='BETON'/ 
&OBST ID='Laden_Wand', XB=-14.25,-14.0,13.75,14.375,0.0,5.0, RGB=204,204,204, TRANSPARENCY=0.505882, SURF_ID='BETON'/ 
&OBST ID='Laden_Wand', XB=-19.0,-18.75,3.5,4.25,0.0,5.0, RGB=204,204,204, TRANSPARENCY=0.509804, SURF_ID='BETON'/ 
&OBST ID='Laden_Wand', XB=-18.75,-18.5,4.25,5.5,0.0,5.0, RGB=204,204,204, TRANSPARENCY=0.509804, SURF_ID='BETON'/ 
! ... 22 like lines cut
&OBST ID='LAden-Wand', XB=-19.5,-19.25,2.5,2.75,0.0,5.0, RGB=204,204,204, TRANSPARENCY=0.588235, SURF_ID='BETON'/ 
&OBST ID='LAden-Wand', XB=-20.0,-19.5,2.25,2.5,0.0,5.0, RGB=204,204,204, TRANSPARENCY=0.588235, SURF_ID='BETON'/ 
&OBST ID='LAden-Wand', XB=-20.5,-20.0,2.0,2.25,0.0,5.0, RGB=204,204,204, TRANSPARENCY=0.588235, SURF_ID='BETON'/ 
&OBST ID='LAden-Wand', XB=-21.0,-20.5,1.75,2.0,0.0,5.0, RGB=204,204,204, TRANSPARENCY=0.588235, SURF_ID='BETON'/ 
&OBST ID='LAden-Wand', XB=-21.5,-21.0,1.5,1.75,0.0,5.0, RGB=204,204,204, TRANSPARENCY=0.588235, SURF_ID='BETON'/ 
&OBST ID='LAden-Wand', XB=-22.0,-21.5,1.25,1.5,0.0,5.0, RGB=204,204,204, TRANSPARENCY=0.588235, SURF_ID='BETON'/ 
&OBST ID='LAden-Wand', XB=-22.5,-22.0,1.0,1.25,0.0,5.0, RGB=204,204,204, TRANSPARENCY=0.588235, SURF_ID='BETON'/ 
&OBST ID='LAden-Wand', XB=-23.0,-22.5,0.75,1.0,0.0,5.0, RGB=204,204,204, TRANSPARENCY=0.588235, SURF_ID='BETON'/ 
&OBST ID='LAden-Wand', XB=-23.25,-23.0,0.5,0.75,0.0,5.0, RGB=204,204,204, TRANSPARENCY=0.588235, SURF_ID='BETON'/ 
&OBST ID='LAden-Wand', XB=2.25,3.0,-18.75,-18.5,2.75,5.0, COLOR='GRAY 80', SURF_ID='BETON'/ 
&OBST ID='LAden-Wand', XB=1.75,2.5,-19.0,-18.75,2.75,5.0, COLOR='GRAY 80', SURF_ID='BETON'/ 
&OBST ID='LAden-Wand', XB=-0.25,1.75,-19.0,-18.75,2.8,5.0, COLOR='GRAY 80', SURF_ID='BETON'/ 
&OBST ID='LAden-Wand', XB=-1.5,-0.25,-19.0,-18.75,2.8,5.0, COLOR='GRAY 80', SURF_ID='BETON'/ 
&OBST ID='LAden-Wand', XB=-2.75,-1.5,-19.0,-18.75,2.75,5.0, COLOR='GRAY 80', SURF_ID='BETON'/ 
&OBST ID='LAden-Wand', XB=-4.5,-2.5,-18.75,-18.5,2.75,5.0, COLOR='GRAY 80', SURF_ID='BETON'/ 
&OBST ID='LAden-Wand', XB=-5.5,-4.25,-18.5,-18.25,2.75,5.0, COLOR='GRAY 80', SURF_ID='BETON'/ 
&OBST ID='LAden-Wand', XB=-6.25,-5.25,-18.25,-18.0,2.75,5.0, COLOR='GRAY 80', SURF_ID='BETON'/ 
&OBST ID='LAden-Wand', XB=-7.0,-6.0,-18.0,-17.75,2.75,5.0, COLOR='GRAY 80', SURF_ID='BETON'/ 
&OBST ID='LAden-Wand', XB=-7.5,-6.75,-17.75,-17.5,2.75,5.0, COLOR='GRAY 80', SURF_ID='BETON'/ 
&OBST ID='LAden-Wand', XB=-7.75,-7.25,-17.5,-17.25,2.75,5.0, COLOR='GRAY 80', SURF_ID='BETON'/ 
&OBST ID='Wall', XB=-8.75,-8.5,-17.5,-17.25,0.0,5.0, SURF_ID='BETON'/ 
&OBST ID='LAden-Wand', XB=-9.25,-8.75,-17.75,-17.5,2.75,5.0, COLOR='GRAY 80', SURF_ID='BETON'/ 
&OBST ID='LAden-Wand', XB=-9.75,-9.25,-18.0,-17.75,2.75,5.0, COLOR='GRAY 80', SURF_ID='BETON'/ 
&OBST ID='LAden-Wand', XB=-10.25,-9.75,-18.25,-18.0,2.75,5.0, COLOR='GRAY 80', SURF_ID='BETON'/ 
&OBST ID='LAden-Wand', XB=-10.75,-10.25,-18.5,-18.25,2.75,5.0, COLOR='GRAY 80', SURF_ID='BETON'/ 
&OBST ID='LAden-Wand', XB=-11.25,-10.5,-18.75,-18.5,2.75,5.0, COLOR='GRAY 80', SURF_ID='BETON'/ 
&OBST ID='LAden-Wand', XB=-11.5,-11.0,-19.0,-18.75,2.75,5.0, COLOR='GRAY 80', SURF_ID='BETON'/ 
&OBST ID='LAden-Wand', XB=-12.0,-11.5,-19.25,-19.0,2.75,5.0, COLOR='GRAY 80', SURF_ID='BETON'/ 
&OBST ID='LAden-Wand', XB=-12.25,-12.0,-19.5,-19.25,2.75,5.0, COLOR='GRAY 80', SURF_ID='BETON'/ 
&OBST ID='Laden-Wand', XB=13.75,14.0,-14.75,-14.5,2.75,5.0, COLOR='GRAY 80', SURF_ID='INERT'/ 
&OBST ID='Laden-Wand', XB=14.0,14.25,-15.25,-14.5,2.75,5.0, COLOR='GRAY 80', SURF_ID='INERT'/ 
&OBST ID='Laden-Wand', XB=14.25,14.5,-15.75,-15.0,2.75,5.0, COLOR='GRAY 80', SURF_ID='INERT'/ 
&OBST ID='Laden-Wand', XB=14.5,14.75,-16.25,-15.5,2.75,5.0, COLOR='GRAY 80', SURF_ID='INERT'/ 
&OBST ID='Laden-Wand', XB=14.75,15.0,-16.5,-16.0,2.75,5.0, COLOR='GRAY 80', SURF_ID='INERT'/ 
&OBST ID='Laden-Wand', XB=14.75,15.25,-16.75,-16.5,2.75,5.0, COLOR='GRAY 80', SURF_ID='INERT'/ 
&OBST ID='Laden-Wand', XB=15.0,15.25,-17.0,-16.75,2.75,5.0, COLOR='GRAY 80', SURF_ID='INERT'/ 
&OBST ID='Laden-Wand', XB=15.0,15.5,-17.25,-17.0,2.75,5.0, COLOR='GRAY 80', SURF_ID='INERT'/ 
&OBST ID='Laden-Wand', XB=15.25,15.5,-17.5,-17.25,2.75,5.0, COLOR='GRAY 80', SURF_ID='INERT'/ 
&OBST ID='Laden-Wand', XB=15.25,15.75,-17.75,-17.5,2.75,5.0, COLOR='GRAY 80', SURF_ID='INERT'/ 
&OBST ID='Laden-Wand', XB=15.5,15.75,-18.0,-17.75,2.75,5.0, COLOR='GRAY 80', SURF_ID='INERT'/ 
&OBST ID='Laden-Wand', XB=15.75,16.0,-18.5,-17.75,2.75,5.0, COLOR='GRAY 80', SURF_ID='INERT'/ 
&OBST ID='Laden-Wand', XB=16.0,16.25,-19.0,-18.25,2.75,5.0, COLOR='GRAY 80', SURF_ID='INERT'/ 
&OBST ID='Laden-Wand', XB=16.25,16.5,-19.5,-18.75,2.75,5.0, COLOR='GRAY 80', SURF_ID='INERT'/ 
&OBST ID='Laden-Wand', XB=4.0,4.25,-20.0,-19.75,2.75,5.0, COLOR='GRAY 80', SURF_ID='INERT'/ 
&OBST ID='Laden-Wand', XB=4.25,4.5,-20.5,-20.0,2.75,5.0, COLOR='GRAY 80', SURF_ID='INERT'/ 
&OBST ID='Laden-Wand', XB=4.5,4.75,-20.75,-20.5,2.75,5.0, COLOR='GRAY 80', SURF_ID='INERT'/ 
&OBST ID='Laden-Wand', XB=4.5,5.0,-21.0,-20.75,2.75,5.0, COLOR='GRAY 80', SURF_ID='INERT'/ 
&OBST ID='Laden-Wand', XB=4.75,5.0,-21.25,-21.0,2.75,5.0, COLOR='GRAY 80', SURF_ID='INERT'/ 
&OBST ID='Laden-Wand', XB=5.0,5.25,-21.75,-21.25,2.75,5.0, COLOR='GRAY 80', SURF_ID='INERT'/ 
! ... 71 like lines cut
&OBST ID='Laden_Wand', XB=4.5,5.0,18.25,18.5,2.75,5.0, COLOR='GRAY 80', SURF_ID='Gipsplatte 15mm'/ 
&OBST ID='Laden_Wand', XB=4.75,5.75,18.0,18.25,2.75,5.0, COLOR='GRAY 80', SURF_ID='Gipsplatte 15mm'/ 
&OBST ID='Laden_Wand', XB=5.5,6.5,17.75,18.0,2.75,5.0, COLOR='GRAY 80', SURF_ID='Gipsplatte 15mm'/ 
&OBST ID='Laden_Wand', XB=6.25,7.25,17.5,17.75,2.75,5.0, COLOR='GRAY 80', SURF_ID='Gipsplatte 15mm'/ 
&OBST ID='Laden_Wand', XB=7.0,7.75,17.25,17.5,2.75,5.0, COLOR='GRAY 80', SURF_ID='Gipsplatte 15mm'/ 
&OBST ID='Laden_Wand', XB=7.5,8.25,17.0,17.25,2.75,5.0, COLOR='GRAY 80', SURF_ID='Gipsplatte 15mm'/ 
&OBST ID='Laden_Wand', XB=8.0,9.0,16.75,17.0,2.75,5.0, COLOR='GRAY 80', SURF_ID='Gipsplatte 15mm'/ 
&OBST ID='Laden_Wand', XB=8.75,9.25,16.5,16.75,2.75,5.0, COLOR='GRAY 80', SURF_ID='Gipsplatte 15mm'/ 
&OBST ID='Laden_Wand', XB=9.0,9.75,16.25,16.5,2.75,5.0, COLOR='GRAY 80', SURF_ID='Gipsplatte 15mm'/ 
&OBST ID='Laden_Wand', XB=9.5,10.0,16.0,16.25,2.75,5.0, COLOR='GRAY 80', SURF_ID='Gipsplatte 15mm'/ 
&OBST ID='Laden_Wand', XB=9.75,10.5,15.75,16.0,2.75,5.0, COLOR='GRAY 80', SURF_ID='Gipsplatte 15mm'/ 
&OBST ID='Laden_Wand', XB=10.25,10.75,15.5,15.75,2.75,5.0, COLOR='GRAY 80', SURF_ID='Gipsplatte 15mm'/ 
&OBST ID='Laden_Wand', XB=10.5,11.25,15.25,15.5,2.75,5.0, COLOR='GRAY 80', SURF_ID='Gipsplatte 15mm'/ 
&OBST ID='Laden_Wand', XB=11.0,11.5,15.0,15.25,2.75,5.0, COLOR='GRAY 80', SURF_ID='Gipsplatte 15mm'/ 
&OBST ID='Laden_Wand', XB=11.25,11.875,14.75,15.0,2.75,5.0, COLOR='GRAY 80', SURF_ID='Gipsplatte 15mm'/ 
&OBST ID='Laden_Wand', XB=11.75,12.125,14.5,14.75,2.75,5.0, COLOR='GRAY 80', SURF_ID='Gipsplatte 15mm'/ 
&OBST ID='Laden_Wand', XB=12.0,12.5,14.25,14.5,2.75,5.0, COLOR='GRAY 80', SURF_ID='Gipsplatte 15mm'/ 
&OBST ID='Laden_Wand', XB=12.25,12.75,14.0,14.25,2.75,5.0, COLOR='GRAY 80', SURF_ID='Gipsplatte 15mm'/ 
&OBST ID='Laden_Wand', XB=12.5,13.0,13.75,14.0,2.75,5.0, COLOR='GRAY 80', SURF_ID='Gipsplatte 15mm'/ 
&OBST ID='Laden_Wand', XB=12.75,13.25,13.5,13.75,2.75,5.0, COLOR='GRAY 80', SURF_ID='Gipsplatte 15mm'/ 
! ... 41 like lines cut
&OBST ID='LAden-Wand', XB=-1.5,-0.25,-19.0,-18.75,2.8,5.0, COLOR='GRAY 80', SURF_ID='Gipsplatte 15mm'/ 
&OBST ID='LAden-Wand', XB=-0.25,1.75,-19.0,-18.75,2.8,5.0, COLOR='GRAY 80', SURF_ID='Gipsplatte 15mm'/ 
&OBST ID='LAden-Wand', XB=18.0,18.25,-0.25,1.75,2.8,5.0, COLOR='GRAY 80', SURF_ID='Gipsplatte 15mm'/ 
&OBST ID='LAden-Wand', XB=18.0,18.25,1.75,2.75,2.8,5.0, COLOR='GRAY 80', SURF_ID='Gipsplatte 15mm'/ 
&OBST ID='LAden-Wand', XB=1.75,2.5,-19.0,-18.75,2.75,5.0, COLOR='GRAY 80', SURF_ID='Gipsplatte 15mm'/ 
&OBST ID='LAden-Wand', XB=2.25,3.0,-18.75,-18.5,2.75,5.0, COLOR='GRAY 80', SURF_ID='Gipsplatte 15mm'/ 
&OBST ID='LAden-Wand', XB=-7.75,-7.25,-17.5,-17.25,2.75,5.0, COLOR='GRAY 80', SURF_ID='Gipsplatte 15mm'/ 
&OBST ID='LAden-Wand', XB=-7.5,-6.75,-17.75,-17.5,2.75,5.0, COLOR='GRAY 80', SURF_ID='Gipsplatte 15mm'/ 
&OBST ID='LAden-Wand', XB=-6.75,-6.0,-18.0,-17.75,2.75,5.0, COLOR='GRAY 80', SURF_ID='Gipsplatte 15mm'/ 
&OBST ID='LAden-Wand', XB=-6.0,-5.25,-18.25,-18.0,2.75,5.0, COLOR='GRAY 80', SURF_ID='Gipsplatte 15mm'/ 
&OBST ID='LAden-Wand', XB=-5.25,-4.25,-18.5,-18.25,2.75,5.0, COLOR='GRAY 80', SURF_ID='Gipsplatte 15mm'/ 
&OBST ID='LAden-Wand', XB=-4.25,-2.5,-18.75,-18.5,2.75,5.0, COLOR='GRAY 80', SURF_ID='Gipsplatte 15mm'/ 
&OBST ID='LAden-Wand', XB=-2.5,-1.5,-19.0,-18.75,2.75,5.0, COLOR='GRAY 80', SURF_ID='Gipsplatte 15mm'/ 
&OBST ID='LAden-Wand', XB=17.0,17.25,-6.25,-5.75,2.75,5.0, COLOR='GRAY 80', SURF_ID='Gipsplatte 15mm'/ 
&OBST ID='LAden-Wand', XB=17.25,17.5,-5.25,-4.5,2.75,5.0, COLOR='GRAY 80', SURF_ID='Gipsplatte 15mm'/ 
&OBST ID='LAden-Wand', XB=17.25,17.5,-4.75,-3.5,2.75,5.0, COLOR='GRAY 80', SURF_ID='Gipsplatte 15mm'/ 
&OBST ID='LAden-Wand', XB=13.5,14.0,-13.0,-12.75,2.75,5.0, COLOR='GRAY 80', SURF_ID='Gipsplatte 15mm'/ 
&OBST ID='LAden-Wand', XB=13.75,14.25,-12.75,-12.5,2.75,5.0, COLOR='GRAY 80', SURF_ID='Gipsplatte 15mm'/ 
&OBST ID='LAden-Wand', XB=14.0,14.5,-12.5,-12.25,2.75,5.0, COLOR='GRAY 80', SURF_ID='Gipsplatte 15mm'/ 
&OBST ID='LAden-Wand', XB=14.25,14.5,-12.25,-12.0,2.75,5.0, COLOR='GRAY 80', SURF_ID='Gipsplatte 15mm'/ 
! ... 18 like lines cut
&OBST ID='Wall_in', XB=-14.25,-13.75,13.75,14.0,0.0,5.0, SURF_ID='BETON'/ 
&OBST ID='Wall_in', XB=-14.25,-13.75,13.5,13.75,0.0,5.0, SURF_ID='BETON'/ 
&OBST ID='Wall_in', XB=-14.0,-13.5,13.25,13.5,0.0,5.0, SURF_ID='BETON'/ 
&OBST ID='Wall_in', XB=-14.25,-13.75,13.0,13.25,0.0,5.0, SURF_ID='BETON'/ 
&OBST ID='Wall_in', XB=-19.0,-18.75,3.0,3.5,0.0,5.0, SURF_ID='BETON'/ 
&OBST ID='Wall_in', XB=-19.5,-19.25,2.5,2.75,0.0,5.0, SURF_ID='BETON'/ 
&OBST ID='Wall_in', XB=-19.25,-18.75,2.75,3.0,0.0,5.0, SURF_ID='BETON'/ 
&OBST ID='Wall_in', XB=-24.5,-24.25,-0.25,0.0,0.0,5.0, SURF_ID='BETON'/ 
&OBST ID='Wall_in', XB=-24.25,-23.75,0.0,0.25,0.0,5.0, SURF_ID='BETON'/ 
&OBST ID='Wall_in', XB=-23.75,-23.25,0.25,0.5,0.0,5.0, SURF_ID='BETON'/ 
&OBST ID='Wall_in', XB=13.0,13.25,-13.5,-13.0,0.0,5.0, SURF_ID='Gipsplatte 15mm'/ 
&OBST ID='Wall_in', XB=2.75,3.5,-18.75,-18.5,0.0,5.0, SURF_ID='Gipsplatte 15mm'/ 
&OBST ID='Wall_in', XB=3.5,4.0,-19.5,-19.25,0.0,5.0, SURF_ID='Gipsplatte 15mm'/ 
&OBST ID='Wall_in', XB=3.5,4.25,-19.75,-19.5,0.0,5.0, SURF_ID='Gipsplatte 15mm'/ 
&OBST ID='Wall_in', XB=3.75,4.0,-20.0,-19.75,0.0,5.0, SURF_ID='Gipsplatte 15mm'/ 
&OBST ID='Wall_in', XB=-4.5,-4.0,19.5,19.75,0.0,5.0, SURF_ID='Gipsplatte 15mm'/ 
&OBST ID='Wall_in', XB=-4.5,-4.0,19.25,19.5,0.0,5.0, SURF_ID='Gipsplatte 15mm'/ 
&OBST ID='Wall_in', XB=-4.25,-3.75,19.0,19.25,0.0,5.0, SURF_ID='Gipsplatte 15mm'/ 
&OBST ID='Wall_in', XB=-4.25,-3.75,18.75,19.0,0.0,5.0, SURF_ID='Gipsplatte 15mm'/ 
&OBST ID='Wall_in', XB=-4.0,-3.25,18.5,18.75,0.0,5.0, SURF_ID='Gipsplatte 15mm'/ 
&OBST ID='Wall_in', XB=3.0,4.0,18.5,18.75,0.0,5.0, SURF_ID='Gipsplatte 15mm'/ 
&OBST ID='Wall_in', XB=3.75,4.0,18.75,19.75,0.0,5.0, SURF_ID='Gipsplatte 15mm'/ 
&OBST ID='Wall_in', XB=3.75,4.5,18.25,18.5,0.0,5.0, SURF_ID='Gipsplatte 15mm'/ 
&OBST ID='Wall_in', XB=4.5,4.75,21.75,22.5,0.0,5.0, SURF_ID='Gipsplatte 15mm'/ 
&OBST ID='Wall_in', XB=4.0,4.25,19.5,20.75,0.0,5.0, SURF_ID='Gipsplatte 15mm'/ 
&OBST ID='Wall_in', XB=4.25,4.5,20.5,22.0,0.0,5.0, SURF_ID='Gipsplatte 15mm'/ 
&OBST ID='Wall_in', XB=17.0,17.25,-7.5,-7.25,0.0,5.0, SURF_ID='Gipsplatte 15mm'/ 
&OBST ID='Wall_in', XB=17.25,18.0,-7.25,-6.75,0.0,5.0, SURF_ID='Gipsplatte 15mm'/ 
&OBST ID='Wall_in', XB=17.25,18.0,-6.75,-6.5,0.0,5.0, SURF_ID='Gipsplatte 15mm'/ 
&OBST ID='Wall_in', XB=17.5,18.0,-6.5,-6.25,0.0,5.0, SURF_ID='Gipsplatte 15mm'/ 
! ... 65 like lines cut
&OBST ID='Wand', XB=3.5,3.75,20.25,21.25,0.0,5.0, SURF_ID='Gipsplatte 15mm'/ 
&OBST ID='Wand', XB=3.75,4.0,21.0,21.75,0.0,5.0, SURF_ID='Gipsplatte 15mm'/ 
&OBST ID='Wand', XB=3.75,4.5,21.75,22.0,0.0,5.0, SURF_ID='Gipsplatte 15mm'/ 
&OBST ID='Wand', XB=4.5,4.75,20.0,20.5,0.0,5.0, SURF_ID='Gipsplatte 15mm'/ 
&OBST ID='Wand', XB=4.75,5.0,21.5,21.75,0.0,5.0, SURF_ID='Gipsplatte 15mm'/ 
&OBST ID='Wand', XB=4.75,5.0,20.25,21.5,0.0,5.0, SURF_ID='Gipsplatte 15mm'/ 
&OBST ID='Wall', XB=3.25,3.5,19.25,19.75,0.0,5.0, SURF_ID='Gipsplatte 15mm'/ 
&OBST ID='Wall', XB=3.5,3.75,19.75,20.25,0.0,5.0, SURF_ID='Gipsplatte 15mm'/ 
&OBST ID='Wall', XB=4.25,4.5,19.0,19.5,0.0,5.0, SURF_ID='Gipsplatte 15mm'/ 
&OBST ID='Wall', XB=4.5,4.75,19.25,19.5,0.0,0.25, SURF_ID='Gipsplatte 15mm'/ 
&OBST ID='Wall', XB=4.5,4.75,19.5,19.75,0.0,5.0, SURF_ID='Gipsplatte 15mm'/ 
&OBST ID='Wall', XB=-16.75,-12.37,44.0,44.25,0.0,5.0, SURF_ID='Gipsplatte 15mm'/ 
&OBST ID='Wall', XB=-12.37,-8.75,44.0,44.25,0.0,5.0, SURF_ID='Gipsplatte 15mm'/ 
&OBST ID='Wall', XB=-8.75,-8.5,38.75,44.25,0.0,5.0, SURF_ID='Gipsplatte 15mm'/ 
&OBST ID='Wall', XB=-8.75,0.87,38.5,38.75,0.0,5.0, SURF_ID='Gipsplatte 15mm'/ 
&OBST ID='Wall', XB=-0.5,6.0,33.75,34.0,0.0,5.0, SURF_ID='Gipsplatte 15mm'/ 
&OBST ID='Wall', XB=-29.13,-28.63,41.5,41.75,0.0,5.0, SURF_ID='Gipsplatte 15mm'/ 
&OBST ID='Wall', XB=-30.5,-29.5,39.25,39.5,0.0,5.0, SURF_ID='Gipsplatte 15mm'/ 
&OBST ID='Wall', XB=-30.25,-29.75,39.0,39.25,0.0,5.0, SURF_ID='Gipsplatte 15mm'/ 
&OBST ID='Wall', XB=-28.87,-28.37,41.25,41.5,0.0,5.0, SURF_ID='Gipsplatte 15mm'/ 
&OBST ID='Wall', XB=-30.5,-29.75,39.0,39.25,0.0,5.0, SURF_ID='Gipsplatte 15mm'/ 
&OBST ID='Wall', XB=-30.25,-29.75,38.75,39.0,0.0,5.0, SURF_ID='Gipsplatte 15mm'/ 
&OBST ID='Wall', XB=-28.63,-28.13,40.75,41.25,0.0,5.0, SURF_ID='Gipsplatte 15mm'/ 
&OBST ID='Wall', XB=-30.0,-29.0,39.5,39.75,0.0,5.0, SURF_ID='Gipsplatte 15mm'/ 
&OBST ID='Wall', XB=-30.0,-29.5,38.25,38.75,0.0,5.0, SURF_ID='Gipsplatte 15mm'/ 
&OBST ID='Wall', XB=-30.0,-29.63,43.0,44.25,0.0,5.0, SURF_ID='Gipsplatte 15mm'/ 
! ... 139 like lines cut
&OBST ID='Obstruction #253', XB=72.5,81.75,23.0,23.5,3.25,5.0, SURF_ID='BETON'/ 
&OBST ID='Obstruction #253', XB=72.5,81.75,17.5,18.0,3.25,5.0, SURF_ID='BETON'/ 
&OBST ID='Unterzug_r[1]', XB=71.5,72.5,5.75,33.75,3.375,5.0, SURF_ID='Beton Stuetze Unterzug'/ 
&OBST ID='Unterzug_r[1]', XB=28.5,29.5,-19.5,29.25,4.125,5.0, SURF_ID='Beton Stuetze Unterzug'/ 
&OBST ID='Unterzug_r[1]', XB=42.75,43.75,-13.75,17.5,4.125,5.0, SURF_ID='Beton Stuetze Unterzug'/ 
&OBST ID='Unterzug_m_u[1][1][1]', XB=5.5,19.0,-6.5,-5.25,4.125,5.0, SURF_ID='Beton Stuetze Unterzug'/ 
&OBST ID='Unterzug_m_u', XB=-0.75,0.25,-19.5,-7.75,4.125,5.0, SURF_ID='Beton Stuetze Unterzug'/ 
&OBST ID='Unterzug_m_u', XB=-0.75,0.25,-19.5,-7.75,4.125,5.0, SURF_ID='Beton Stuetze Unterzug'/ 
&OBST ID='Unterzug_m-o', XB=-0.75,0.25,7.75,22.5,4.125,5.0, SURF_ID='Beton Stuetze Unterzug'/ 
&OBST ID='Unterzug_m-o', XB=-0.75,0.25,7.75,31.25,4.125,5.0, SURF_ID='Beton Stuetze Unterzug'/ 
&OBST ID='Unterzug_m_u[1][1][1][1]', XB=5.5,19.25,5.25,6.5,4.125,5.0, SURF_ID='Beton Stuetze Unterzug'/ 
&OBST ID='Unterzug_r[1]', XB=57.25,58.25,5.75,33.75,4.125,5.0, SURF_ID='Beton Stuetze Unterzug'/ 
&OBST ID='Unterzug_r[1]', XB=43.0,72.0,6.5,7.5,4.125,5.0, SURF_ID='Beton Stuetze Unterzug'/ 
&OBST ID='Unterzug_r', XB=14.75,15.75,-39.25,29.0,4.125,5.0, SURF_ID='Beton Stuetze Unterzug'/ 
&OBST ID='Unterzug_r[1]', XB=42.5,44.0,17.0,33.75,4.25,5.0, SURF_ID='Beton Stuetze Unterzug'/ 
&OBST ID='Obstruction #253', XB=29.5,42.75,7.5,7.75,4.5,5.0, SURF_ID='BETON'/ 
&OBST ID='Obstruction #253', XB=29.5,42.75,-4.625,-4.25,4.5,5.0, SURF_ID='BETON'/ 
&OBST ID='Obstruction #253', XB=29.5,41.25,-5.875,-5.5,4.5,5.0, SURF_ID='BETON'/ 
&OBST ID='Obstruction #253', XB=29.5,40.25,-7.0,-6.625,4.5,5.0, SURF_ID='BETON'/ 
&OBST ID='Obstruction #253', XB=29.5,39.5,-8.125,-7.75,4.5,5.0, SURF_ID='BETON'/ 
&OBST ID='Obstruction #253', XB=29.5,37.646447,-9.375,-9.0,4.5,5.0, SURF_ID='BETON'/ 
&OBST ID='Obstruction #253', XB=29.5,37.0,-10.625,-10.25,4.5,5.0, SURF_ID='BETON'/ 
&OBST ID='Obstruction #242', XB=15.5,29.5,1.75,2.25,4.5,5.0, SURF_ID='BETON'/ 
&OBST ID='Rest', XB=0.25,15.5,28.75,29.0,4.5,5.0, SURF_ID='BETON'/ 
&OBST ID='rest', XB=-29.0,-8.5,41.0,41.5,4.5,5.0, SURF_ID='BETON'/ 
&OBST ID='rest', XB=-29.5,-8.5,42.25,42.75,4.5,5.0, SURF_ID='BETON'/ 
&OBST ID='rest', XB=-27.0,-0.75,18.75,19.25,4.5,5.0, SURF_ID='BETON'/ 
&OBST ID='rest', XB=-29.75,-8.5,43.5,44.0,4.5,5.0, SURF_ID='BETON'/ 
&OBST ID='rest', XB=-29.75,-8.5,39.75,40.25,4.5,5.0, SURF_ID='BETON'/ 
&OBST ID='rest', XB=-29.75,-8.5,38.75,39.0,4.5,5.0, SURF_ID='BETON'/ 
&OBST ID='rest', XB=-27.5,-0.5,33.75,34.0,4.5,5.0, SURF_ID='BETON'/ 
&OBST ID='Obstruction #253', XB=8.5,29.0,-3.0,-2.5,4.5,5.0, SURF_ID='BETON'/ 
&OBST ID='Obstruction #255', XB=7.5,29.0,-5.5,-5.0,4.5,5.0, SURF_ID='BETON'/ 
&OBST ID='Obstruction #257', XB=3.25,29.0,-8.0,-7.5,4.5,5.0, SURF_ID='BETON'/ 
&OBST ID='Obstruction #259', XB=0.25,29.0,-10.25,-9.75,4.5,5.0, SURF_ID='BETON'/ 
&OBST ID='Obstruction #260', XB=0.25,29.0,-12.75,-12.25,4.5,5.0, SURF_ID='BETON'/ 
&OBST ID='Obstruction #263', XB=0.25,30.25,-15.0,-14.5,4.5,5.0, SURF_ID='BETON'/ 
&OBST ID='Obstruction #264', XB=0.25,30.25,-17.5,-17.0,4.5,5.0, SURF_ID='BETON'/ 
&OBST ID='Obstruction #265[1]', XB=0.25,29.25,-19.5,-19.0,4.5,5.0, SURF_ID='BETON'/ 
&OBST ID='Obstruction #253', XB=8.875,29.0,-0.5,0.0,4.5,5.0, SURF_ID='BETON'/ 
&OBST ID='Obstruction #253', XB=8.5,29.0,1.75,2.25,4.5,5.0, SURF_ID='BETON'/ 
&OBST ID='Obstruction #253', XB=7.5,29.0,4.25,4.75,4.5,5.0, SURF_ID='BETON'/ 
&OBST ID='Obstruction #253', XB=6.25,29.0,6.5,7.0,4.5,5.0, SURF_ID='BETON'/ 
&OBST ID='Obstruction #253', XB=-1.25,29.0,9.0,9.5,4.5,5.0, SURF_ID='BETON'/ 
&OBST ID='Obstruction #253', XB=-14.125,29.0,11.5,12.0,4.5,5.0, SURF_ID='BETON'/ 
&OBST ID='Obstruction #253', XB=-14.125,29.0,13.75,14.25,4.5,5.0, SURF_ID='BETON'/ 
&OBST ID='Obstruction #253', XB=-14.125,29.0,16.25,16.75,4.5,5.0, SURF_ID='BETON'/ 
&OBST ID='Obstruction #253', XB=-14.125,29.0,18.5,19.0,4.5,5.0, SURF_ID='BETON'/ 
&OBST ID='Obstruction #253', XB=-14.125,29.0,21.0,21.5,4.5,5.0, SURF_ID='BETON'/ 
&OBST ID='Obstruction #253', XB=-14.125,29.0,23.5,24.0,4.5,5.0, SURF_ID='BETON'/ 
&OBST ID='Obstruction #253', XB=-14.125,29.0,25.75,26.25,4.5,5.0, SURF_ID='BETON'/ 
&OBST ID='Obstruction #253', XB=29.25,71.5,26.75,27.125,4.5,5.0, SURF_ID='BETON'/ 
&OBST ID='Obstruction #253', XB=-14.125,29.0,28.25,28.75,4.5,5.0, SURF_ID='BETON'/ 
&OBST ID='Obstruction #253', XB=29.25,71.5,25.5,25.875,4.5,5.0, SURF_ID='BETON'/ 
&OBST ID='Obstruction #253', XB=29.25,71.5,24.375,24.75,4.5,5.0, SURF_ID='BETON'/ 
&OBST ID='Obstruction #253', XB=29.25,71.5,23.25,23.5,4.5,5.0, SURF_ID='BETON'/ 
&OBST ID='Obstruction #253', XB=29.25,71.5,22.0,22.375,4.5,5.0, SURF_ID='BETON'/ 
&OBST ID='Obstruction #253', XB=29.25,71.5,20.375,20.875,4.5,5.0, SURF_ID='BETON'/ 
&OBST ID='Obstruction #253', XB=29.25,71.5,19.25,19.625,4.5,5.0, SURF_ID='BETON'/ 
! ... 24 like lines cut
&OBST ID='Ring_', XB=-8.5,-8.0,-0.75,0.75,4.25,5.25, SURF_ID='Beton Stuetze Unterzug'/ 
&OBST ID='Ring_', XB=-1.0,-0.75,-8.25,-7.75,4.25,5.25, SURF_ID='Beton Stuetze Unterzug'/ 
&OBST ID='Ring_', XB=0.25,0.75,-8.25,-7.75,4.25,5.25, SURF_ID='Beton Stuetze Unterzug'/ 
&OBST ID='Ring_', XB=7.5,8.0,-0.75,1.0,4.25,5.25, SURF_ID='Beton Stuetze Unterzug'/ 
&OBST ID='Rigel um Ring', XB=-9.0,-8.5,-5.25,5.25,4.25,5.0, SURF_ID='Beton Stuetze Unterzug'/ 
&OBST ID='Rigel um Ring', XB=8.0,8.5,-5.25,5.25,4.25,5.0, SURF_ID='Beton Stuetze Unterzug'/ 
&OBST ID='Rigel um Ring', XB=-6.0,-5.25,6.25,6.5,4.25,5.0, SURF_ID='Beton Stuetze Unterzug'/ 
&OBST ID='Rigel um Ring', XB=-6.0,-5.75,6.0,6.25,4.25,5.0, SURF_ID='Beton Stuetze Unterzug'/ 
&OBST ID='Rigel um Ring', XB=-6.0,-5.0,6.5,6.75,4.25,5.0, SURF_ID='Beton Stuetze Unterzug'/ 
&OBST ID='Rigel um Ring', XB=-5.5,-4.5,6.75,7.0,4.25,5.0, SURF_ID='Beton Stuetze Unterzug'/ 
&OBST ID='Rigel um Ring', XB=-5.0,-4.0,7.0,7.25,4.25,5.0, SURF_ID='Beton Stuetze Unterzug'/ 
&OBST ID='Rigel um Ring', XB=-4.75,-3.75,7.25,7.5,4.25,5.0, SURF_ID='Beton Stuetze Unterzug'/ 
&OBST ID='Rigel um Ring', XB=-4.25,-3.25,7.5,7.75,4.25,5.0, SURF_ID='Beton Stuetze Unterzug'/ 
&OBST ID='Rigel um Ring', XB=-3.75,-2.75,7.75,8.0,4.25,5.0, SURF_ID='Beton Stuetze Unterzug'/ 
&OBST ID='Rigel um Ring', XB=-3.5,-2.5,8.0,8.25,4.25,5.0, SURF_ID='Beton Stuetze Unterzug'/ 
&OBST ID='Rigel um Ring', XB=-3.0,-2.0,8.25,8.5,4.25,5.0, SURF_ID='Beton Stuetze Unterzug'/ 
&OBST ID='Rigel um Ring', XB=-2.5,-1.5,8.5,8.75,4.25,5.0, SURF_ID='Beton Stuetze Unterzug'/ 
&OBST ID='Rigel um Ring', XB=-2.0,-1.25,8.75,9.0,4.25,5.0, SURF_ID='Beton Stuetze Unterzug'/ 
&OBST ID='Rigel um Ring', XB=-1.75,-0.75,9.0,9.25,4.25,5.0, SURF_ID='Beton Stuetze Unterzug'/ 
&OBST ID='Rigel um Ring', XB=-1.25,-0.75,9.25,9.5,4.25,5.0, SURF_ID='Beton Stuetze Unterzug'/ 
&OBST ID='Rigel um Ring', XB=-1.0,-0.75,9.5,9.75,4.25,5.0, SURF_ID='Beton Stuetze Unterzug'/ 
&OBST ID='Rigel um Ring', XB=0.25,0.75,9.25,9.5,4.25,5.0, SURF_ID='Beton Stuetze Unterzug'/ 
&OBST ID='Rigel um Ring', XB=0.25,0.5,9.5,9.75,4.25,5.0, SURF_ID='Beton Stuetze Unterzug'/ 
&OBST ID='Rigel um Ring', XB=0.25,1.25,9.0,9.25,4.25,5.0, SURF_ID='Beton Stuetze Unterzug'/ 
! ... 44 like lines cut
&OBST ID='LK_UK4.25_OK4.5', XB=20.0,21.0,-4.75,6.0,4.25,4.5, SURF_ID='Kanal_L'/ 
&OBST ID='LK_UK4.25_OK4.5', XB=21.5,23.5,-7.75,-7.25,4.25,4.5, SURF_ID='Kanal_L'/ 
&OBST ID='LK_UK4.25_OK4.5', XB=20.75,23.0,-7.0,-6.5,4.25,4.5, SURF_ID='Kanal_L'/ 
&OBST ID='LK_UK4.25_OK4.5', XB=20.25,20.75,-7.25,-6.5,4.25,4.5, SURF_ID='Kanal_L'/ 
&OBST ID='LK_UK4.25_OK4.5', XB=21.0,21.5,-8.0,-7.25,4.25,4.5, SURF_ID='Kanal_L'/ 
&OBST ID='LK_UK4.25_OK4.5', XB=23.25,23.75,-7.25,7.0,4.25,4.5, SURF_ID='Kanal_L'/ 
&OBST ID='LK_UK4.25_OK4.5', XB=22.5,23.04749,-6.5,6.75,4.25,4.5, SURF_ID='Kanal_L'/ 
&OBST ID='LK_UK4.25_OK4.5', XB=17.25,17.75,14.904382,17.0,4.25,4.5, SURF_ID='Kanal_L'/ 
&OBST ID='LK_UK4.25_OK4.5', XB=17.75,18.25,15.0,17.5,4.25,4.5, SURF_ID='Kanal_L'/ 
&OBST ID='LK_UK4.0_OK4.25', XB=25.757338,26.75,-9.25,-2.75,4.0,4.25, SURF_ID='Kanal_L'/ 
&OBST ID='LK_UK4.0_OK4.25', XB=27.5,28.25,-9.75,-0.25,4.0,4.25, SURF_ID='Kanal_L'/ 
&OBST ID='LK_UK4.0_OK4.25', XB=13.25,16.25,18.25,19.0,4.0,4.25, SURF_ID='Kanal_L'/ 
&OBST ID='LK_UK4.0_OK4.25', XB=16.75,17.25,18.25,19.5,4.0,4.25, SURF_ID='Kanal_L'/ 
&OBST ID='LK_UK4.0_OK4.25', XB=13.5,17.25,19.25,19.75,4.0,4.25, SURF_ID='Kanal_L'/ 
&OBST ID='LK_UK4.0_OK4.25', XB=12.75,13.5,19.5,21.25,4.0,4.25, SURF_ID='Kanal_L'/ 
&OBST ID='LK_UK4.0_OK4.25', XB=7.0,7.5,22.0,23.513508,4.0,4.25, SURF_ID='Kanal_L'/ 
&OBST ID='LK_UK4.0_OK4.25', XB=6.25,7.5,23.5,28.75,4.0,4.25, SURF_ID='Kanal_L'/ 
&OBST ID='LK_UK4.0_OK4.25', XB=7.0,25.5,25.0,25.75,3.75,4.0, SURF_ID='Kanal_L'/ 
&OBST ID='LK_UK4.0_OK4.25', XB=7.0,20.25,23.75,24.5,3.75,4.0, SURF_ID='Kanal_L'/ 
&OBST ID='LK_UK4.0_OK4.25', XB=19.5,20.25,21.0,23.75,3.75,4.0, SURF_ID='Kanal_L'/ 
! ... 17 like lines cut
&OBST ID='K RWA ABL UK4_OK4.5', XB=70.25,71.25,12.75,23.75,4.0,4.5, SURF_ID='Kanal_ENTR'/ 
&OBST ID='K RWA ABL UK4_OK4.5', XB=52.5,54.0,21.25,26.25,4.0,4.5, SURF_ID='Kanal_ENTR'/ 
&OBST ID='K RWA ABL UK4_OK4.5', XB=51.75,56.75,21.5,22.75,4.0,4.5, SURF_ID='Kanal_ENTR'/ 
&OBST ID='K RWA ABL UK4_OK4.5', XB=56.0,56.75,8.25,25.5,4.0,4.5, SURF_ID='Kanal_ENTR'/ 
&OBST ID='K RWA ABL UK4_OK4.5', XB=50.0,51.5,27.5,30.75,4.0,4.5, SURF_ID='Kanal_ENTR'/ 
&OBST ID='K RWA ABL UK4_OK4.5', XB=51.0,52.5,27.0,28.25,4.0,4.5, SURF_ID='Kanal_ENTR'/ 
&OBST ID='K RWA ABL UK4_OK4.5', XB=51.75,53.5,26.25,27.0,4.0,4.5, SURF_ID='Kanal_ENTR'/ 
&OBST ID='K RWA ABL UK4_OK4.5', XB=58.25,59.0,7.5,26.75,4.0,4.5, SURF_ID='Kanal_ENTR'/ 
&OBST ID='K RWA ABL UK4_OK4.5', XB=55.25,56.0,29.25,31.5,4.0,4.5, SURF_ID='Kanal_ENTR'/ 
&OBST ID='K RWA ABL UK4_OK4.5', XB=56.0,62.25,30.5,31.5,4.0,4.5, SURF_ID='Kanal_ENTR'/ 
&OBST ID='K RWA ABL UK4_OK4.5', XB=59.0,70.25,21.25,22.0,4.0,4.5, SURF_ID='Kanal_ENTR'/ 
&OBST ID='K RWA ABL UK4_OK4.5', XB=63.25,64.25,22.0,25.75,4.0,4.5, SURF_ID='Kanal_ENTR'/ 
&OBST ID='K RWA ABL UK4_OK4.5', XB=30.25,31.0,18.0,24.0,4.0,4.5, SURF_ID='Kanal_ENTR'/ 
&OBST ID='K RWA ABL UK4_OK4.5', XB=31.75,32.5,17.75,21.5,4.0,4.5, SURF_ID='Kanal_ENTR'/ 
&OBST ID='K RWA ABL UK4_OK4.5', XB=30.0,30.75,16.75,17.5,4.0,4.5, SURF_ID='Kanal_ENTR'/ 
&OBST ID='K RWA ABL UK4_OK4.5', XB=31.0,32.0,20.75,21.5,4.0,4.5, SURF_ID='Kanal_ENTR'/ 
&OBST ID='K RWA ABL UK4_OK4.5', XB=30.25,31.75,17.5,18.25,4.0,4.5, SURF_ID='Kanal_ENTR'/ 
&OBST ID='K RWA ABL UK4_OK4.5', XB=30.25,32.75,24.0,30.75,4.0,4.5, SURF_ID='Kanal_ENTR'/ 
&OBST ID='K RWA ABL UK4_OK4.5', XB=30.25,31.75,30.75,34.25,4.0,4.5, SURF_ID='Kanal_ENTR'/ 
&OBST ID='K RWA ABL UK4_OK4.5', XB=27.75,30.25,30.5,32.25,4.0,4.5, SURF_ID='Kanal_ENTR'/ 
! ... 46 like lines cut
&OBST ID='W', XB=7.5,8.0,-1.0,1.0,2.0,2.5, SURF_ID='GLAS'/ 
&OBST ID='W', XB=7.25,7.75,1.0,2.0,2.0,2.5, SURF_ID='GLAS'/ 
&OBST ID='W', XB=7.0,7.5,2.0,3.0,2.0,2.5, SURF_ID='GLAS'/ 
&OBST ID='W', XB=6.75,7.25,3.0,3.5,2.0,2.5, SURF_ID='GLAS'/ 
&OBST ID='W', XB=6.5,7.0,3.5,4.0,2.0,2.5, SURF_ID='GLAS'/ 
&OBST ID='W', XB=6.25,6.75,4.0,4.5,2.0,2.5, SURF_ID='GLAS'/ 
&OBST ID='W', XB=5.75,6.5,4.5,5.0,2.0,2.5, SURF_ID='GLAS'/ 
&OBST ID='W', XB=5.25,5.75,5.0,5.5,2.0,2.5, SURF_ID='GLAS'/ 
&OBST ID='W', XB=4.75,5.25,5.25,6.0,2.0,2.5, SURF_ID='GLAS'/ 
&OBST ID='W', XB=4.25,4.75,5.75,6.75,2.0,2.5, SURF_ID='GLAS'/ 
&OBST ID='W', XB=3.75,4.25,6.5,7.0,2.0,2.5, SURF_ID='GLAS'/ 
&OBST ID='W', XB=3.25,3.75,6.75,7.25,2.0,2.5, SURF_ID='GLAS'/ 
&OBST ID='W', XB=2.75,3.25,7.0,7.5,2.0,2.5, SURF_ID='GLAS'/ 
&OBST ID='W', XB=1.75,2.75,7.25,7.75,2.0,2.5, SURF_ID='GLAS'/ 
&OBST ID='W', XB=0.75,1.75,7.5,8.0,2.0,2.5, SURF_ID='GLAS'/ 
&OBST ID='W', XB=-1.25,0.75,7.75,8.25,2.0,2.5, SURF_ID='GLAS'/ 
&OBST ID='W', XB=7.25,7.75,-2.0,-1.0,2.0,2.5, SURF_ID='GLAS'/ 
&OBST ID='W', XB=7.0,7.5,-3.0,-2.0,2.0,2.5, SURF_ID='GLAS'/ 
&OBST ID='W', XB=6.75,7.25,-3.5,-3.0,2.0,2.5, SURF_ID='GLAS'/ 
&OBST ID='W', XB=6.5,7.0,-4.0,-3.5,2.0,2.5, SURF_ID='GLAS'/ 
! ... 392 like lines cut
&OBST ID='W_3', XB=7.25,7.75,-1.0,1.0,1.5,2.0, SURF_ID='GLAS'/ 
&OBST ID='W_3', XB=7.0,7.5,1.0,2.0,1.5,2.0, SURF_ID='GLAS'/ 
&OBST ID='W_3', XB=6.75,7.25,2.0,2.5,1.5,2.0, SURF_ID='GLAS'/ 
&OBST ID='W_3', XB=6.5,7.0,2.5,3.0,1.5,2.0, SURF_ID='GLAS'/ 
&OBST ID='W_3', XB=6.25,6.75,3.0,3.5,1.5,2.0, SURF_ID='GLAS'/ 
&OBST ID='W_3', XB=6.0,6.5,3.5,4.0,1.5,2.0, SURF_ID='GLAS'/ 
&OBST ID='W_3', XB=5.75,6.25,4.0,4.5,1.5,2.0, SURF_ID='GLAS'/ 
&OBST ID='W_3', XB=5.5,6.0,4.5,5.25,1.5,2.0, SURF_ID='GLAS'/ 
&OBST ID='W_3', XB=5.0,5.75,5.25,6.0,1.5,2.0, SURF_ID='GLAS'/ 
&OBST ID='W_3', XB=4.25,5.25,5.75,6.25,1.5,2.0, SURF_ID='GLAS'/ 
&OBST ID='W_3', XB=3.75,4.25,6.0,6.5,1.5,2.0, SURF_ID='GLAS'/ 
&OBST ID='W_3', XB=3.25,3.75,6.25,6.75,1.5,2.0, SURF_ID='GLAS'/ 
&OBST ID='W_3', XB=2.75,3.25,6.5,7.0,1.5,2.0, SURF_ID='GLAS'/ 
&OBST ID='W_3', XB=2.25,2.75,6.75,7.25,1.5,2.0, SURF_ID='GLAS'/ 
&OBST ID='W_3', XB=1.75,2.25,7.0,7.5,1.5,2.0, SURF_ID='GLAS'/ 
&OBST ID='W_3', XB=0.75,1.75,7.25,7.75,1.5,2.0, SURF_ID='GLAS'/ 
&OBST ID='W_3', XB=-1.25,0.75,7.5,8.0,1.5,2.0, SURF_ID='GLAS'/ 
&OBST ID='W_3', XB=7.0,7.5,-2.0,-1.0,1.5,2.0, SURF_ID='GLAS'/ 
&OBST ID='W_3', XB=6.75,7.25,-2.5,-2.0,1.5,2.0, SURF_ID='GLAS'/ 
&OBST ID='W_3', XB=6.5,7.0,-3.0,-2.5,1.5,2.0, SURF_ID='GLAS'/ 
! ... 164 like lines cut
&OBST ID='Schuerze re fest UK 3.5m', XB=28.25,28.5,-9.75,29.0,3.5,5.0, RGB=167,0,0, SURF_ID='INERT'/ 
&OBST ID='Schuerze re mobil UK2.5m', XB=28.25,28.5,-9.75,29.0,2.5,3.5, COLOR='RED', SURF_ID='INERT', CTRL_ID='Timer RS'/ 
&OBST ID='Brandherd alt', XB=33.5,35.5,13.625,15.75,0.0,0.5, SURF_IDS='Burner alt','INERT','INERT'/ 
&OBST ID='Boden', XB=29.0,43.5,-15.5,33.5,-0.25,0.0, COLOR='INVISIBLE', SURF_ID='BETON'/ 
&OBST ID='Boden', XB=43.5,44.625,-15.5,-15.375,-0.25,0.0, COLOR='INVISIBLE', SURF_ID='BETON'/ 
&OBST ID='Boden', XB=43.5,44.75,-15.375,-15.25,-0.25,0.0, COLOR='INVISIBLE', SURF_ID='BETON'/ 
&OBST ID='Boden', XB=43.5,44.875,-15.25,-15.125,-0.25,0.0, COLOR='INVISIBLE', SURF_ID='BETON'/ 
&OBST ID='Boden', XB=43.5,45.0,-15.125,-15.0,-0.25,0.0, COLOR='INVISIBLE', SURF_ID='BETON'/ 
&OBST ID='Boden', XB=43.5,45.125,-15.0,-14.875,-0.25,0.0, COLOR='INVISIBLE', SURF_ID='BETON'/ 
&OBST ID='Boden', XB=43.5,45.25,-14.875,-14.75,-0.25,0.0, COLOR='INVISIBLE', SURF_ID='BETON'/ 
&OBST ID='Boden', XB=43.5,45.375,-14.75,-14.625,-0.25,0.0, COLOR='INVISIBLE', SURF_ID='BETON'/ 
&OBST ID='Boden', XB=43.5,45.5,-14.625,-14.5,-0.25,0.0, COLOR='INVISIBLE', SURF_ID='BETON'/ 
&OBST ID='Boden', XB=43.5,45.625,-14.5,-14.375,-0.25,0.0, COLOR='INVISIBLE', SURF_ID='BETON'/ 
&OBST ID='Boden', XB=43.5,45.75,-14.375,-14.25,-0.25,0.0, COLOR='INVISIBLE', SURF_ID='BETON'/ 
&OBST ID='Boden', XB=43.5,45.875,-14.25,-14.125,-0.25,0.0, COLOR='INVISIBLE', SURF_ID='BETON'/ 
&OBST ID='Boden', XB=43.5,46.0,-14.125,-14.0,-0.25,0.0, COLOR='INVISIBLE', SURF_ID='BETON'/ 
&OBST ID='Boden', XB=43.5,46.125,-14.0,-13.875,-0.25,0.0, COLOR='INVISIBLE', SURF_ID='BETON'/ 
&OBST ID='Boden', XB=43.5,46.25,-13.875,-13.75,-0.25,0.0, COLOR='INVISIBLE', SURF_ID='BETON'/ 
&OBST ID='Boden', XB=43.5,46.375,-13.75,-13.625,-0.25,0.0, COLOR='INVISIBLE', SURF_ID='BETON'/ 
&OBST ID='Boden', XB=43.5,46.5,-13.625,-13.5,-0.25,0.0, COLOR='INVISIBLE', SURF_ID='BETON'/ 
&OBST ID='Boden', XB=43.5,46.625,-13.5,-13.375,-0.25,0.0, COLOR='INVISIBLE', SURF_ID='BETON'/ 
&OBST ID='Boden', XB=43.5,46.75,-13.375,-13.25,-0.25,0.0, COLOR='INVISIBLE', SURF_ID='BETON'/ 
&OBST ID='Boden', XB=43.5,46.875,-13.25,-13.125,-0.25,0.0, COLOR='INVISIBLE', SURF_ID='BETON'/ 
! ... 357 like lines cut
&OBST ID='Decke UK 5.0', XB=29.0,43.5,-15.5,33.5,5.0,5.25, COLOR='INVISIBLE', SURF_ID='BETON'/ 
&OBST ID='Decke UK 5.0', XB=43.5,45.0,-15.5,-15.375,5.0,5.25, COLOR='INVISIBLE', SURF_ID='BETON'/ 
&OBST ID='Decke UK 5.0', XB=43.5,45.125,-15.375,-15.25,5.0,5.25, COLOR='INVISIBLE', SURF_ID='BETON'/ 
&OBST ID='Decke UK 5.0', XB=43.5,45.25,-15.25,-15.125,5.0,5.25, COLOR='INVISIBLE', SURF_ID='BETON'/ 
&OBST ID='Decke UK 5.0', XB=43.5,45.375,-15.125,-15.0,5.0,5.25, COLOR='INVISIBLE', SURF_ID='BETON'/ 
&OBST ID='Decke UK 5.0', XB=43.5,45.5,-15.0,-14.875,5.0,5.25, COLOR='INVISIBLE', SURF_ID='BETON'/ 
&OBST ID='Decke UK 5.0', XB=43.5,45.625,-14.875,-14.75,5.0,5.25, COLOR='INVISIBLE', SURF_ID='BETON'/ 
&OBST ID='Decke UK 5.0', XB=43.5,45.75,-14.75,-14.625,5.0,5.25, COLOR='INVISIBLE', SURF_ID='BETON'/ 
&OBST ID='Decke UK 5.0', XB=43.5,45.875,-14.625,-14.5,5.0,5.25, COLOR='INVISIBLE', SURF_ID='BETON'/ 
&OBST ID='Decke UK 5.0', XB=43.5,46.0,-14.5,-14.375,5.0,5.25, COLOR='INVISIBLE', SURF_ID='BETON'/ 
&OBST ID='Decke UK 5.0', XB=43.5,46.125,-14.375,-14.25,5.0,5.25, COLOR='INVISIBLE', SURF_ID='BETON'/ 
&OBST ID='Decke UK 5.0', XB=43.5,46.25,-14.25,-14.125,5.0,5.25, COLOR='INVISIBLE', SURF_ID='BETON'/ 
&OBST ID='Decke UK 5.0', XB=43.5,46.375,-14.125,-14.0,5.0,5.25, COLOR='INVISIBLE', SURF_ID='BETON'/ 
&OBST ID='Decke UK 5.0', XB=43.5,46.5,-14.0,-13.875,5.0,5.25, COLOR='INVISIBLE', SURF_ID='BETON'/ 
&OBST ID='Decke UK 5.0', XB=43.5,46.625,-13.875,-13.75,5.0,5.25, COLOR='INVISIBLE', SURF_ID='BETON'/ 
&OBST ID='Decke UK 5.0', XB=43.5,46.75,-13.75,-13.625,5.0,5.25, COLOR='INVISIBLE', SURF_ID='BETON'/ 
&OBST ID='Decke UK 5.0', XB=43.5,46.875,-13.625,-13.5,5.0,5.25, COLOR='INVISIBLE', SURF_ID='BETON'/ 
&OBST ID='Decke UK 5.0', XB=43.5,47.0,-13.5,-13.375,5.0,5.25, COLOR='INVISIBLE', SURF_ID='BETON'/ 
&OBST ID='Decke UK 5.0', XB=43.5,47.125,-13.375,-13.25,5.0,5.25, COLOR='INVISIBLE', SURF_ID='BETON'/ 
&OBST ID='Decke UK 5.0', XB=43.5,47.25,-13.25,-13.125,5.0,5.25, COLOR='INVISIBLE', SURF_ID='BETON'/ 
! ... 194 like lines cut
&OBST ID='Decke UK 3,875', XB=72.25,77.625,12.5,33.5,3.875,4.125, COLOR='INVISIBLE', SURF_ID='Beton Stuetze Unterzug'/ 
&OBST ID='Wand', XB=17.125,17.875,-5.0,-4.875,0.0,5.0, SURF_ID='Gipsplatte 15mm'/ 
&OBST ID='Wand', XB=17.25,17.5,-4.875,-4.75,0.0,5.0, SURF_ID='Gipsplatte 15mm'/ 
&OBST ID='Wand', XB=17.375,18.25,-5.125,-5.0,0.0,5.0, SURF_ID='Gipsplatte 15mm'/ 
&OBST ID='Wand', XB=17.75,18.625,-5.25,-5.125,0.0,5.0, SURF_ID='Gipsplatte 15mm'/ 
&OBST ID='Wand', XB=18.125,19.0,-5.375,-5.25,0.0,5.0, SURF_ID='Gipsplatte 15mm'/ 
&OBST ID='Wand', XB=18.5,19.375,-5.5,-5.375,0.0,5.0, SURF_ID='Gipsplatte 15mm'/ 
&OBST ID='Wand', XB=18.875,19.5,-5.625,-5.5,0.0,5.0, SURF_ID='Gipsplatte 15mm'/ 
&OBST ID='Wand', XB=19.25,19.5,-6.0,-5.625,0.0,5.0, SURF_ID='Gipsplatte 15mm'/ 
&OBST ID='Wand', XB=19.25,19.625,-6.125,-6.0,0.0,5.0, SURF_ID='Gipsplatte 15mm'/ 
&OBST ID='Wand', XB=19.25,20.0,-6.25,-6.125,0.0,5.0, SURF_ID='Gipsplatte 15mm'/ 
&OBST ID='Wand', XB=19.625,20.375,-6.375,-6.25,0.0,5.0, SURF_ID='Gipsplatte 15mm'/ 
&OBST ID='Wand', XB=20.0,20.625,-6.5,-6.375,0.0,5.0, SURF_ID='Gipsplatte 15mm'/ 
&OBST ID='Wand', XB=20.25,21.0,-6.625,-6.5,0.0,5.0, SURF_ID='Gipsplatte 15mm'/ 
&OBST ID='Wand', XB=20.625,21.25,-6.75,-6.625,0.0,5.0, SURF_ID='Gipsplatte 15mm'/ 
&OBST ID='Wand', XB=20.875,21.625,-6.875,-6.75,0.0,5.0, SURF_ID='Gipsplatte 15mm'/ 
&OBST ID='Wand', XB=21.25,22.0,-7.0,-6.875,0.0,5.0, SURF_ID='Gipsplatte 15mm'/ 
&OBST ID='Wand', XB=21.625,22.25,-7.125,-7.0,0.0,5.0, SURF_ID='Gipsplatte 15mm'/ 
&OBST ID='Wand', XB=21.875,22.625,-7.25,-7.125,0.0,5.0, SURF_ID='Gipsplatte 15mm'/ 
&OBST ID='Wand', XB=22.25,23.0,-7.375,-7.25,0.0,5.0, SURF_ID='Gipsplatte 15mm'/ 
&OBST ID='Wand', XB=22.625,23.25,-7.5,-7.375,0.0,5.0, SURF_ID='Gipsplatte 15mm'/ 
! ... 369 like lines cut
&OBST ID='Torsturz', XB=62.125,62.5,33.25,33.375,2.75,5.0, SURF_ID='Gipsplatte 15mm'/ 
&OBST ID='Torsturz', XB=62.25,62.375,33.375,33.5,2.75,5.0, SURF_ID='Gipsplatte 15mm'/ 
&OBST ID='Torsturz', XB=62.25,62.625,33.125,33.25,2.75,5.0, SURF_ID='Gipsplatte 15mm'/ 
&OBST ID='Torsturz', XB=62.375,62.75,33.0,33.125,2.75,5.0, SURF_ID='Gipsplatte 15mm'/ 
&OBST ID='Torsturz', XB=62.5,62.875,32.875,33.0,2.75,5.0, SURF_ID='Gipsplatte 15mm'/ 
&OBST ID='Torsturz', XB=62.625,63.0,32.75,32.875,2.75,5.0, SURF_ID='Gipsplatte 15mm'/ 
&OBST ID='Torsturz', XB=62.75,63.125,32.625,32.75,2.75,5.0, SURF_ID='Gipsplatte 15mm'/ 
&OBST ID='Torsturz', XB=62.875,63.25,32.5,32.625,2.75,5.0, SURF_ID='Gipsplatte 15mm'/ 
&OBST ID='Torsturz', XB=63.0,63.375,32.375,32.5,2.75,5.0, SURF_ID='Gipsplatte 15mm'/ 
&OBST ID='Torsturz', XB=63.125,63.5,32.25,32.375,2.75,5.0, SURF_ID='Gipsplatte 15mm'/ 
&OBST ID='Torsturz', XB=63.25,63.625,32.125,32.25,2.75,5.0, SURF_ID='Gipsplatte 15mm'/ 
&OBST ID='Torsturz', XB=63.375,63.75,32.0,32.125,2.75,5.0, SURF_ID='Gipsplatte 15mm'/ 
&OBST ID='Torsturz', XB=63.5,63.875,31.875,32.0,2.75,5.0, SURF_ID='Gipsplatte 15mm'/ 
&OBST ID='Torsturz', XB=63.625,64.0,31.75,31.875,2.75,5.0, SURF_ID='Gipsplatte 15mm'/ 
&OBST ID='Torsturz', XB=63.75,64.125,31.625,31.75,2.75,5.0, SURF_ID='Gipsplatte 15mm'/ 
&OBST ID='Torsturz', XB=63.875,64.25,31.5,31.625,2.75,5.0, SURF_ID='Gipsplatte 15mm'/ 
&OBST ID='Torsturz', XB=64.0,64.375,31.375,31.5,2.75,5.0, SURF_ID='Gipsplatte 15mm'/ 
&OBST ID='Torsturz', XB=64.125,64.5,31.25,31.375,2.75,5.0, SURF_ID='Gipsplatte 15mm'/ 
&OBST ID='Torsturz', XB=64.25,64.625,31.125,31.25,2.75,5.0, SURF_ID='Gipsplatte 15mm'/ 
&OBST ID='Torsturz', XB=64.375,64.75,31.0,31.125,2.75,5.0, SURF_ID='Gipsplatte 15mm'/ 
! ... 91 like lines cut
&OBST ID='UK UK 4 OK 5', XB=34.125,35.5,-12.375,-12.25,4.0,5.0, SURF_ID='Beton Stuetze Unterzug'/ 
&OBST ID='UK UK 4 OK 5', XB=34.125,35.625,-12.25,-12.125,4.0,5.0, SURF_ID='Beton Stuetze Unterzug'/ 
&OBST ID='UK UK 4 OK 5', XB=34.25,35.375,-12.5,-12.375,4.0,5.0, SURF_ID='Beton Stuetze Unterzug'/ 
&OBST ID='UK UK 4 OK 5', XB=34.25,35.75,-12.125,-12.0,4.0,5.0, SURF_ID='Beton Stuetze Unterzug'/ 
&OBST ID='UK UK 4 OK 5', XB=34.375,35.25,-12.625,-12.5,4.0,5.0, SURF_ID='Beton Stuetze Unterzug'/ 
&OBST ID='UK UK 4 OK 5', XB=34.375,35.875,-12.0,-11.875,4.0,5.0, SURF_ID='Beton Stuetze Unterzug'/ 
&OBST ID='UK UK 4 OK 5', XB=34.5,35.125,-12.75,-12.625,4.0,5.0, SURF_ID='Beton Stuetze Unterzug'/ 
&OBST ID='UK UK 4 OK 5', XB=34.5,36.0,-11.875,-11.75,4.0,5.0, SURF_ID='Beton Stuetze Unterzug'/ 
&OBST ID='UK UK 4 OK 5', XB=34.625,35.0,-12.875,-12.75,4.0,5.0, SURF_ID='Beton Stuetze Unterzug'/ 
&OBST ID='UK UK 4 OK 5', XB=34.625,36.125,-11.75,-11.625,4.0,5.0, SURF_ID='Beton Stuetze Unterzug'/ 
&OBST ID='UK UK 4 OK 5', XB=34.75,34.875,-13.0,-12.875,4.0,5.0, SURF_ID='Beton Stuetze Unterzug'/ 
&OBST ID='UK UK 4 OK 5', XB=34.75,36.25,-11.625,-11.5,4.0,5.0, SURF_ID='Beton Stuetze Unterzug'/ 
&OBST ID='UK UK 4 OK 5', XB=34.875,36.375,-11.5,-11.375,4.0,5.0, SURF_ID='Beton Stuetze Unterzug'/ 
&OBST ID='UK UK 4 OK 5', XB=35.0,36.5,-11.375,-11.25,4.0,5.0, SURF_ID='Beton Stuetze Unterzug'/ 
&OBST ID='UK UK 4 OK 5', XB=35.125,36.625,-11.25,-11.125,4.0,5.0, SURF_ID='Beton Stuetze Unterzug'/ 
&OBST ID='UK UK 4 OK 5', XB=35.25,36.75,-11.125,-11.0,4.0,5.0, SURF_ID='Beton Stuetze Unterzug'/ 
&OBST ID='UK UK 4 OK 5', XB=35.375,36.875,-11.0,-10.875,4.0,5.0, SURF_ID='Beton Stuetze Unterzug'/ 
&OBST ID='UK UK 4 OK 5', XB=35.5,37.0,-10.875,-10.75,4.0,5.0, SURF_ID='Beton Stuetze Unterzug'/ 
&OBST ID='UK UK 4 OK 5', XB=35.625,37.125,-10.75,-10.625,4.0,5.0, SURF_ID='Beton Stuetze Unterzug'/ 
&OBST ID='UK UK 4 OK 5', XB=35.75,37.25,-10.625,-10.5,4.0,5.0, SURF_ID='Beton Stuetze Unterzug'/ 
! ... 371 like lines cut
&OBST ID='UK UK 4.5m', XB=46.125,46.25,-1.25,-1.125,4.5,5.0, SURF_ID='Beton Stuetze Unterzug'/ 
&OBST ID='UK UK 4.5m', XB=46.125,46.375,-1.375,-1.25,4.5,5.0, SURF_ID='Beton Stuetze Unterzug'/ 
&OBST ID='UK UK 4.5m', XB=46.25,46.5,-1.5,-1.375,4.5,5.0, SURF_ID='Beton Stuetze Unterzug'/ 
&OBST ID='UK UK 4.5m', XB=46.375,46.625,-1.625,-1.5,4.5,5.0, SURF_ID='Beton Stuetze Unterzug'/ 
&OBST ID='UK UK 4.5m', XB=46.5,46.75,-1.75,-1.625,4.5,5.0, SURF_ID='Beton Stuetze Unterzug'/ 
&OBST ID='UK UK 4.5m', XB=46.625,46.875,-1.875,-1.75,4.5,5.0, SURF_ID='Beton Stuetze Unterzug'/ 
&OBST ID='UK UK 4.5m', XB=46.75,47.0,-2.0,-1.875,4.5,5.0, SURF_ID='Beton Stuetze Unterzug'/ 
&OBST ID='UK UK 4.5m', XB=46.875,47.125,-2.125,-2.0,4.5,5.0, SURF_ID='Beton Stuetze Unterzug'/ 
&OBST ID='UK UK 4.5m', XB=47.0,47.25,-2.25,-2.125,4.5,5.0, SURF_ID='Beton Stuetze Unterzug'/ 
&OBST ID='UK UK 4.5m', XB=47.125,47.375,-2.375,-2.25,4.5,5.0, SURF_ID='Beton Stuetze Unterzug'/ 
&OBST ID='UK UK 4.5m', XB=47.125,47.625,0.25,0.375,4.5,5.0, SURF_ID='Beton Stuetze Unterzug'/ 
&OBST ID='UK UK 4.5m', XB=47.25,47.5,-2.5,-2.375,4.5,5.0, SURF_ID='Beton Stuetze Unterzug'/ 
&OBST ID='UK UK 4.5m', XB=47.25,47.625,0.125,0.25,4.5,5.0, SURF_ID='Beton Stuetze Unterzug'/ 
&OBST ID='UK UK 4.5m', XB=47.375,47.625,-2.625,-2.5,4.5,5.0, SURF_ID='Beton Stuetze Unterzug'/ 
&OBST ID='UK UK 4.5m', XB=47.375,47.75,0.0,0.125,4.5,5.0, SURF_ID='Beton Stuetze Unterzug'/ 
&OBST ID='UK UK 4.5m', XB=47.375,47.75,0.375,0.5,4.5,5.0, SURF_ID='Beton Stuetze Unterzug'/ 
&OBST ID='UK UK 4.5m', XB=47.5,47.75,-2.75,-2.625,4.5,5.0, SURF_ID='Beton Stuetze Unterzug'/ 
&OBST ID='UK UK 4.5m', XB=47.5,47.875,-0.125,0.0,4.5,5.0, SURF_ID='Beton Stuetze Unterzug'/ 
&OBST ID='UK UK 4.5m', XB=47.5,47.875,0.5,0.625,4.5,5.0, SURF_ID='Beton Stuetze Unterzug'/ 
&OBST ID='UK UK 4.5m', XB=47.625,47.875,-2.875,-2.75,4.5,5.0, SURF_ID='Beton Stuetze Unterzug'/ 
! ... 975 like lines cut
&OBST ID='UD UK 3.75', XB=5.75,6.0,19.875,20.25,3.75,4.0, RGB=255,174,51, TRANSPARENCY=0.6, SURF_ID='Calciumsilikatplatte 15mm'/ 
&OBST ID='UD UK 3.75', XB=5.75,6.125,20.25,20.75,3.75,4.0, RGB=255,174,51, TRANSPARENCY=0.6, SURF_ID='Calciumsilikatplatte 15mm'/ 
&OBST ID='UD UK 3.75', XB=5.75,6.25,19.75,19.875,3.75,4.0, RGB=255,174,51, TRANSPARENCY=0.6, SURF_ID='Calciumsilikatplatte 15mm'/ 
&OBST ID='UD UK 3.75', XB=5.75,6.25,20.75,21.375,3.75,4.0, RGB=255,174,51, TRANSPARENCY=0.6, SURF_ID='Calciumsilikatplatte 15mm'/ 
&OBST ID='UD UK 3.75', XB=5.75,6.375,21.375,22.0,3.75,4.0, RGB=255,174,51, TRANSPARENCY=0.6, SURF_ID='Calciumsilikatplatte 15mm'/ 
&OBST ID='UD UK 3.75', XB=5.75,6.5,19.625,19.75,3.75,4.0, RGB=255,174,51, TRANSPARENCY=0.6, SURF_ID='Calciumsilikatplatte 15mm'/ 
&OBST ID='UD UK 3.75', XB=5.75,6.5,22.0,22.625,3.75,4.0, RGB=255,174,51, TRANSPARENCY=0.6, SURF_ID='Calciumsilikatplatte 15mm'/ 
&OBST ID='UD UK 3.75', XB=5.75,6.625,22.625,23.125,3.75,4.0, RGB=255,174,51, TRANSPARENCY=0.6, SURF_ID='Calciumsilikatplatte 15mm'/ 
&OBST ID='UD UK 3.75', XB=5.75,6.75,23.125,23.75,3.75,4.0, RGB=255,174,51, TRANSPARENCY=0.6, SURF_ID='Calciumsilikatplatte 15mm'/ 
&OBST ID='UD UK 3.75', XB=5.75,6.875,19.5,19.625,3.75,4.0, RGB=255,174,51, TRANSPARENCY=0.6, SURF_ID='Calciumsilikatplatte 15mm'/ 
&OBST ID='UD UK 3.75', XB=5.75,6.875,23.75,24.375,3.75,4.0, RGB=255,174,51, TRANSPARENCY=0.6, SURF_ID='Calciumsilikatplatte 15mm'/ 
&OBST ID='UD UK 3.75', XB=5.75,7.0,24.375,24.875,3.75,4.0, RGB=255,174,51, TRANSPARENCY=0.6, SURF_ID='Calciumsilikatplatte 15mm'/ 
&OBST ID='UD UK 3.75', XB=5.75,7.125,19.375,19.5,3.75,4.0, RGB=255,174,51, TRANSPARENCY=0.6, SURF_ID='Calciumsilikatplatte 15mm'/ 
&OBST ID='UD UK 3.75', XB=5.75,7.125,24.875,25.5,3.75,4.0, RGB=255,174,51, TRANSPARENCY=0.6, SURF_ID='Calciumsilikatplatte 15mm'/ 
&OBST ID='UD UK 3.75', XB=5.75,7.25,25.5,26.125,3.75,4.0, RGB=255,174,51, TRANSPARENCY=0.6, SURF_ID='Calciumsilikatplatte 15mm'/ 
&OBST ID='UD UK 3.75', XB=5.75,7.375,19.25,19.375,3.75,4.0, RGB=255,174,51, TRANSPARENCY=0.6, SURF_ID='Calciumsilikatplatte 15mm'/ 
&OBST ID='UD UK 3.75', XB=5.75,7.375,26.125,26.75,3.75,4.0, RGB=255,174,51, TRANSPARENCY=0.6, SURF_ID='Calciumsilikatplatte 15mm'/ 
&OBST ID='UD UK 3.75', XB=5.75,7.5,26.75,27.0,3.75,4.0, RGB=255,174,51, TRANSPARENCY=0.6, SURF_ID='Calciumsilikatplatte 15mm'/ 
&OBST ID='UD UK 3.75', XB=5.75,7.625,19.125,19.25,3.75,4.0, RGB=255,174,51, TRANSPARENCY=0.6, SURF_ID='Calciumsilikatplatte 15mm'/ 
&OBST ID='UD UK 3.75', XB=5.75,8.0,19.0,19.125,3.75,4.0, RGB=255,174,51, TRANSPARENCY=0.6, SURF_ID='Calciumsilikatplatte 15mm'/ 
! ... 1096 like lines cut
&OBST ID='Tore rechts', XB=62.625,62.75,32.75,32.875,0.0,2.75, SURF_ID='INERT', CTRL_ID='TIMER Tor'/ 
&OBST ID='Tore rechts', XB=62.625,62.875,32.625,32.75,0.0,2.75, SURF_ID='INERT', CTRL_ID='TIMER Tor'/ 
&OBST ID='Tore rechts', XB=62.75,63.0,32.5,32.625,0.0,2.75, SURF_ID='INERT', CTRL_ID='TIMER Tor'/ 
&OBST ID='Tore rechts', XB=62.875,63.125,32.375,32.5,0.0,2.75, SURF_ID='INERT', CTRL_ID='TIMER Tor'/ 
&OBST ID='Tore rechts', XB=63.0,63.25,32.25,32.375,0.0,2.75, SURF_ID='INERT', CTRL_ID='TIMER Tor'/ 
&OBST ID='Tore rechts', XB=63.125,63.375,32.125,32.25,0.0,2.75, SURF_ID='INERT', CTRL_ID='TIMER Tor'/ 
&OBST ID='Tore rechts', XB=63.25,63.5,32.0,32.125,0.0,2.75, SURF_ID='INERT', CTRL_ID='TIMER Tor'/ 
&OBST ID='Tore rechts', XB=63.375,63.625,31.875,32.0,0.0,2.75, SURF_ID='INERT', CTRL_ID='TIMER Tor'/ 
&OBST ID='Tore rechts', XB=63.5,63.875,31.75,31.875,0.0,2.75, SURF_ID='INERT', CTRL_ID='TIMER Tor'/ 
&OBST ID='Tore rechts', XB=63.625,64.0,31.625,31.75,0.0,2.75, SURF_ID='INERT', CTRL_ID='TIMER Tor'/ 
&OBST ID='Tore rechts', XB=63.75,64.125,31.5,31.625,0.0,2.75, SURF_ID='INERT', CTRL_ID='TIMER Tor'/ 
&OBST ID='Tore rechts', XB=63.875,64.25,31.375,31.5,0.0,2.75, SURF_ID='INERT', CTRL_ID='TIMER Tor'/ 
&OBST ID='Tore rechts', XB=64.0,64.375,31.25,31.375,0.0,2.75, SURF_ID='INERT', CTRL_ID='TIMER Tor'/ 
&OBST ID='Tore rechts', XB=64.125,64.5,31.125,31.25,0.0,2.75, SURF_ID='INERT', CTRL_ID='TIMER Tor'/ 
&OBST ID='Tore rechts', XB=64.25,64.625,31.0,31.125,0.0,2.75, SURF_ID='INERT', CTRL_ID='TIMER Tor'/ 
&OBST ID='Tore rechts', XB=64.375,64.75,30.875,31.0,0.0,2.75, SURF_ID='INERT', CTRL_ID='TIMER Tor'/ 
&OBST ID='Tore rechts', XB=64.5,64.875,30.75,30.875,0.0,2.75, SURF_ID='INERT', CTRL_ID='TIMER Tor'/ 
&OBST ID='Tore rechts', XB=64.625,65.0,30.625,30.75,0.0,2.75, SURF_ID='INERT', CTRL_ID='TIMER Tor'/ 
&OBST ID='Tore rechts', XB=64.75,65.125,30.5,30.625,0.0,2.75, SURF_ID='INERT', CTRL_ID='TIMER Tor'/ 
&OBST ID='Tore rechts', XB=64.875,65.25,30.375,30.5,0.0,2.75, SURF_ID='INERT', CTRL_ID='TIMER Tor'/ 
! ... 84 like lines cut
&OBST ID='K Lft UK4_OK4.5', XB=32.25,33.75,32.25,33.5,4.0,4.5, SURF_ID='Kanal_L'/ 
&OBST ID='K Lft UK4_OK4.5', XB=32.25,42.375,32.125,32.25,4.0,4.5, SURF_ID='Kanal_L'/ 
&OBST ID='K Lft UK4_OK4.5', XB=32.25,42.625,32.0,32.125,4.0,4.5, SURF_ID='Kanal_L'/ 
&OBST ID='K Lft UK4_OK4.5', XB=32.25,43.5,31.5,32.0,4.0,4.5, SURF_ID='Kanal_L'/ 
&OBST ID='K Lft UK4_OK4.5', XB=32.375,43.5,31.375,31.5,4.0,4.5, SURF_ID='Kanal_L'/ 
&OBST ID='K Lft UK4_OK4.5', XB=32.5,43.5,31.25,31.375,4.0,4.5, SURF_ID='Kanal_L'/ 
&OBST ID='K Lft UK4_OK4.5', XB=32.625,43.5,31.125,31.25,4.0,4.5, SURF_ID='Kanal_L'/ 
&OBST ID='K Lft UK4_OK4.5', XB=32.75,43.5,31.0,31.125,4.0,4.5, SURF_ID='Kanal_L'/ 
&OBST ID='K Lft UK4_OK4.5', XB=33.0,43.5,30.875,31.0,4.0,4.5, SURF_ID='Kanal_L'/ 
&OBST ID='K Lft UK4_OK4.5', XB=33.125,43.5,30.75,30.875,4.0,4.5, SURF_ID='Kanal_L'/ 
&OBST ID='K Lft UK4_OK4.5', XB=33.25,43.5,30.625,30.75,4.0,4.5, SURF_ID='Kanal_L'/ 
&OBST ID='K Lft UK4_OK4.5', XB=33.375,43.5,30.5,30.625,4.0,4.5, SURF_ID='Kanal_L'/ 
&OBST ID='K Lft UK4_OK4.5', XB=34.5,35.25,28.25,30.5,4.0,4.5, SURF_ID='Kanal_L'/ 
&OBST ID='K Lft UK4_OK4.5', XB=34.5,35.5,32.25,33.5,4.0,4.5, SURF_ID='Kanal_L'/ 
&OBST ID='K Lft UK4_OK4.5', XB=36.25,37.75,29.75,30.5,4.0,4.5, SURF_ID='Kanal_L'/ 
&OBST ID='K Lft UK4_OK4.5', XB=38.0,38.75,28.25,30.5,4.0,4.5, SURF_ID='Kanal_L'/ 
&OBST ID='K Lft UK4_OK4.5', XB=39.75,40.75,28.25,30.5,4.0,4.5, SURF_ID='Kanal_L'/ 
&OBST ID='K Lft UK4_OK4.5', XB=43.5,46.25,30.5,30.625,4.0,4.5, SURF_ID='Kanal_L'/ 
&OBST ID='K Lft UK4_OK4.5', XB=43.5,46.375,30.625,30.75,4.0,4.5, SURF_ID='Kanal_L'/ 
&OBST ID='K Lft UK4_OK4.5', XB=43.5,46.5,30.75,30.875,4.0,4.5, SURF_ID='Kanal_L'/ 
! ... 86 like lines cut
&OBST ID='LK_UK4.25_OK4.5', XB=18.875,19.375,-7.25,-7.0,4.25,4.5, SURF_ID='Kanal_L'/ 
&OBST ID='LK_UK4.25_OK4.5', XB=18.875,19.5,-7.0,-6.875,4.25,4.5, SURF_ID='Kanal_L'/ 
&OBST ID='LK_UK4.25_OK4.5', XB=19.0,19.5,-6.875,-6.75,4.25,4.5, SURF_ID='Kanal_L'/ 
&OBST ID='LK_UK4.25_OK4.5', XB=19.0,19.625,-6.75,-6.625,4.25,4.5, SURF_ID='Kanal_L'/ 
&OBST ID='LK_UK4.25_OK4.5', XB=19.125,19.25,-7.375,-7.25,4.25,4.5, SURF_ID='Kanal_L'/ 
&OBST ID='LK_UK4.25_OK4.5', XB=19.125,19.625,-6.625,-6.375,4.25,4.5, SURF_ID='Kanal_L'/ 
&OBST ID='LK_UK4.25_OK4.5', XB=19.25,19.75,-6.375,-6.125,4.25,4.5, SURF_ID='Kanal_L'/ 
&OBST ID='LK_UK4.25_OK4.5', XB=19.25,19.875,-6.125,-6.0,4.25,4.5, SURF_ID='Kanal_L'/ 
&OBST ID='LK_UK4.25_OK4.5', XB=19.375,19.875,-6.0,-5.875,4.25,4.5, SURF_ID='Kanal_L'/ 
&OBST ID='LK_UK4.25_OK4.5', XB=19.375,20.0,-5.875,-5.75,4.25,4.5, SURF_ID='Kanal_L'/ 
&OBST ID='LK_UK4.25_OK4.5', XB=19.5,20.0,-5.75,-5.625,4.25,4.5, SURF_ID='Kanal_L'/ 
&OBST ID='LK_UK4.25_OK4.5', XB=19.5,20.125,-5.625,-5.5,4.25,4.5, SURF_ID='Kanal_L'/ 
&OBST ID='LK_UK4.25_OK4.5', XB=19.625,20.125,-5.5,-5.25,4.25,4.5, SURF_ID='Kanal_L'/ 
&OBST ID='LK_UK4.25_OK4.5', XB=19.75,20.25,-5.25,-5.0,4.25,4.5, SURF_ID='Kanal_L'/ 
&OBST ID='LK_UK4.25_OK4.5', XB=19.75,20.375,-5.0,-4.875,4.25,4.5, SURF_ID='Kanal_L'/ 
&OBST ID='LK_UK4.25_OK4.5', XB=19.875,20.375,-4.875,-4.625,4.25,4.5, SURF_ID='Kanal_L'/ 
&OBST ID='LK_UK4.25_OK4.5', XB=20.0,20.125,-4.625,-4.5,4.25,4.5, SURF_ID='Kanal_L'/ 
&OBST ID='LK_UK4.25_OK4.5', XB=20.375,20.5,-4.75,-4.75,4.25,4.5, SURF_ID='Kanal_L'/ 
&OBST ID='LK_UK4.25_OK4.5', XB=5.75,5.875,20.5,20.625,4.25,4.5, SURF_ID='Kanal_L'/ 
&OBST ID='LK_UK4.25_OK4.5', XB=5.75,6.125,20.375,20.5,4.25,4.5, SURF_ID='Kanal_L'/ 
! ... 439 like lines cut
&OBST ID='K RWA ABL UK4_OK4.5', XB=39.0,39.125,-7.125,-7.0,4.0,4.5, SURF_ID='Kanal_ENTR'/ 
&OBST ID='K RWA ABL UK4_OK4.5', XB=39.0,39.25,-7.25,-7.125,4.0,4.5, SURF_ID='Kanal_ENTR'/ 
&OBST ID='K RWA ABL UK4_OK4.5', XB=39.0,39.375,-7.375,-7.25,4.0,4.5, SURF_ID='Kanal_ENTR'/ 
&OBST ID='K RWA ABL UK4_OK4.5', XB=39.0,39.5,-7.5,-7.375,4.0,4.5, SURF_ID='Kanal_ENTR'/ 
&OBST ID='K RWA ABL UK4_OK4.5', XB=39.125,39.625,-7.625,-7.5,4.0,4.5, SURF_ID='Kanal_ENTR'/ 
&OBST ID='K RWA ABL UK4_OK4.5', XB=39.25,39.75,-7.75,-7.625,4.0,4.5, SURF_ID='Kanal_ENTR'/ 
&OBST ID='K RWA ABL UK4_OK4.5', XB=39.375,39.875,-7.875,-7.75,4.0,4.5, SURF_ID='Kanal_ENTR'/ 
&OBST ID='K RWA ABL UK4_OK4.5', XB=39.5,40.0,-8.0,-7.875,4.0,4.5, SURF_ID='Kanal_ENTR'/ 
&OBST ID='K RWA ABL UK4_OK4.5', XB=39.625,40.125,-8.125,-8.0,4.0,4.5, SURF_ID='Kanal_ENTR'/ 
&OBST ID='K RWA ABL UK4_OK4.5', XB=39.75,40.25,-8.25,-8.125,4.0,4.5, SURF_ID='Kanal_ENTR'/ 
&OBST ID='K RWA ABL UK4_OK4.5', XB=39.75,40.375,-8.375,-8.25,4.0,4.5, SURF_ID='Kanal_ENTR'/ 
&OBST ID='K RWA ABL UK4_OK4.5', XB=39.75,40.5,-8.5,-8.375,4.0,4.5, SURF_ID='Kanal_ENTR'/ 
&OBST ID='K RWA ABL UK4_OK4.5', XB=39.875,40.625,-8.625,-8.5,4.0,4.5, SURF_ID='Kanal_ENTR'/ 
&OBST ID='K RWA ABL UK4_OK4.5', XB=40.0,40.75,-8.75,-8.625,4.0,4.5, SURF_ID='Kanal_ENTR'/ 
&OBST ID='K RWA ABL UK4_OK4.5', XB=40.125,40.875,-8.875,-8.75,4.0,4.5, SURF_ID='Kanal_ENTR'/ 
&OBST ID='K RWA ABL UK4_OK4.5', XB=40.375,41.0,-9.0,-8.875,4.0,4.5, SURF_ID='Kanal_ENTR'/ 
&OBST ID='K RWA ABL UK4_OK4.5', XB=40.5,41.125,-9.125,-9.0,4.0,4.5, SURF_ID='Kanal_ENTR'/ 
&OBST ID='K RWA ABL UK4_OK4.5', XB=40.625,41.25,-9.25,-9.125,4.0,4.5, SURF_ID='Kanal_ENTR'/ 
&OBST ID='K RWA ABL UK4_OK4.5', XB=40.75,41.375,-9.375,-9.25,4.0,4.5, SURF_ID='Kanal_ENTR'/ 
&OBST ID='K RWA ABL UK4_OK4.5', XB=40.75,41.625,-9.5,-9.375,4.0,4.5, SURF_ID='Kanal_ENTR'/ 
! ... 246 like lines cut
&OBST ID='Schuerze li fest UK 2.5m', XB=5.75,6.0,19.875,20.0,2.5,5.0, COLOR='RED', SURF_ID='INERT'/ 
&OBST ID='Schuerze li fest UK 2.5m', XB=5.75,6.25,19.75,19.875,2.5,5.0, COLOR='RED', SURF_ID='INERT'/ 
&OBST ID='Schuerze li fest UK 2.5m', XB=5.875,6.5,19.625,19.75,2.5,5.0, COLOR='RED', SURF_ID='INERT'/ 
&OBST ID='Schuerze li fest UK 2.5m', XB=6.125,6.75,19.5,19.625,2.5,5.0, COLOR='RED', SURF_ID='INERT'/ 
&OBST ID='Schuerze li fest UK 2.5m', XB=6.5,7.125,19.375,19.5,2.5,5.0, COLOR='RED', SURF_ID='INERT'/ 
&OBST ID='Schuerze li fest UK 2.5m', XB=6.75,7.375,19.25,19.375,2.5,5.0, COLOR='RED', SURF_ID='INERT'/ 
&OBST ID='Schuerze li fest UK 2.5m', XB=7.0,7.625,19.125,19.25,2.5,5.0, COLOR='RED', SURF_ID='INERT'/ 
&OBST ID='Schuerze li fest UK 2.5m', XB=7.25,7.875,19.0,19.125,2.5,5.0, COLOR='RED', SURF_ID='INERT'/ 
&OBST ID='Schuerze li fest UK 2.5m', XB=7.625,8.25,18.875,19.0,2.5,5.0, COLOR='RED', SURF_ID='INERT'/ 
&OBST ID='Schuerze li fest UK 2.5m', XB=7.875,8.5,18.75,18.875,2.5,5.0, COLOR='RED', SURF_ID='INERT'/ 
&OBST ID='Schuerze li fest UK 2.5m', XB=8.125,8.75,18.625,18.75,2.5,5.0, COLOR='RED', SURF_ID='INERT'/ 
&OBST ID='Schuerze li fest UK 2.5m', XB=8.375,9.0,18.5,18.625,2.5,5.0, COLOR='RED', SURF_ID='INERT'/ 
&OBST ID='Schuerze li fest UK 2.5m', XB=8.75,9.375,18.375,18.5,2.5,5.0, COLOR='RED', SURF_ID='INERT'/ 
&OBST ID='Schuerze li fest UK 2.5m', XB=9.0,9.625,18.25,18.375,2.5,5.0, COLOR='RED', SURF_ID='INERT'/ 
&OBST ID='Schuerze li fest UK 2.5m', XB=9.25,9.875,18.125,18.25,2.5,5.0, COLOR='RED', SURF_ID='INERT'/ 
&OBST ID='Schuerze li fest UK 2.5m', XB=9.5,10.125,18.0,18.125,2.5,5.0, COLOR='RED', SURF_ID='INERT'/ 
&OBST ID='Schuerze li fest UK 2.5m', XB=9.875,10.375,17.875,18.0,2.5,5.0, COLOR='RED', SURF_ID='INERT'/ 
&OBST ID='Schuerze li fest UK 2.5m', XB=10.125,10.625,17.75,17.875,2.5,5.0, COLOR='RED', SURF_ID='INERT'/ 
&OBST ID='Schuerze li fest UK 2.5m', XB=10.375,10.75,17.625,17.75,2.5,5.0, COLOR='RED', SURF_ID='INERT'/ 
&OBST ID='Schuerze li fest UK 2.5m', XB=10.5,10.875,17.5,17.625,2.5,5.0, COLOR='RED', SURF_ID='INERT'/ 
! ... 92 like lines cut

&VENT ID='Mesh Vent: Mesh-02-merged-a [XMIN]', SURF_ID='OPEN', XB=5.75,5.75,-9.75,29.0,-0.25,5.25/ 
&VENT ID='Mesh Vent: Mesh-09-merged [XMAX]', SURF_ID='OPEN', XB=60.25,60.25,-15.5,1.0,-0.25,5.25/ 
&VENT ID='Mesh Vent: Mesh-14-merged [XMAX]', SURF_ID='OPEN', XB=77.625,77.625,1.0,33.5,-0.25,5.25/ 
&VENT ID='RWA_38_1368m3h', SURF_ID='ENT_1368m3h', XB=30.25,30.25,15.5,16.5,4.0,4.5/ 
&VENT ID='RWA_39_1368m3h', SURF_ID='ENT_1368m3h', XB=30.25,30.25,11.0,12.0,4.0,4.5/ 
&VENT ID='RWA_40_1656m3h', SURF_ID='ENT_1656m3h', XB=30.25,30.25,-8.75,-7.75,4.0,4.5/ 
&VENT ID='RWA_41_1296m3h', SURF_ID='ENT_1296m3h', XB=37.0,37.0,15.5,16.5,4.0,4.5/ 
&VENT ID='RWA_42_1656m3h', SURF_ID='ENT_1656m3h', XB=30.25,30.25,-7.25,-6.25,4.0,4.5/ 
&VENT ID='RWA_43_1512m3h', SURF_ID='ENT_1512m3h', XB=30.25,30.25,-4.5,-3.5,4.0,4.5/ 
&VENT ID='RWA_44_1224m3h', SURF_ID='ENT_1224m3h', XB=34.75,34.75,19.25,20.25,4.0,4.5/ 
&VENT ID='RWA_45_1368m3h', SURF_ID='ENT_1368m3h', XB=37.0,37.0,11.0,12.0,4.0,4.5/ 
&VENT ID='RWA_46_1584m3h', SURF_ID='ENT_1512m3h', XB=30.25,30.25,0.25,1.25,4.0,4.5/ 
&VENT ID='RWA_47_1512m3h', SURF_ID='ENT_1512m3h', XB=37.0,37.0,5.25,6.25,4.0,4.5/ 
&VENT ID='RWA_48_1872m3h', SURF_ID='ENT_1872m3h', XB=37.0,37.0,1.0,2.0,4.0,4.5/ 
&VENT ID='RWA_49_2160m3h', SURF_ID='ENT_2160m3h', XB=37.0,37.0,-3.5,-2.5,4.0,4.5/ 
&VENT ID='RWA_50_1296m3h', SURF_ID='ENT_1296m3h', XB=42.75,42.75,-12.0,-11.25,4.0,4.5/ 
&VENT ID='RWA_51_1512m3h', SURF_ID='ENT_1512m3h', XB=40.75,40.75,-10.0,-9.25,4.0,4.5/ 
&VENT ID='RWA_52_1728m3h', SURF_ID='ENT_1728m3h', XB=37.0,37.0,-6.75,-5.75,4.0,4.5/ 
&VENT ID='RWA_53_1080m3h', SURF_ID='ENT_1080m3h', XB=49.5,49.5,-5.75,-5.0,4.0,4.5/ 
&VENT ID='RWA_54_1296m3h', SURF_ID='ENT_1296m3h', XB=47.25,47.25,-3.75,-3.0,4.0,4.5/ 
&VENT ID='RWA_55_288m3h', SURF_ID='ENT_288m3h', XB=46.25,46.25,-8.75,-8.0,4.0,4.5/ 
&VENT ID='RWA_56_720m3h', SURF_ID='ENT_720m3h', XB=44.25,44.25,-6.75,-6.0,4.0,4.5/ 
&VENT ID='RWA_57_936m3h', SURF_ID='ENT_936m3h', XB=45.0,45.0,5.25,6.0,4.0,4.5/ 
! ... 38 like lines cut

&SLCF QUANTITY='VISIBILITY', PBZ=2.0/
&SLCF QUANTITY='OPTICAL DENSITY', PBZ=2.0/
&SLCF QUANTITY='TEMPERATURE', PBZ=2.5/
&SLCF QUANTITY='VISIBILITY', PBZ=2.5/
&SLCF QUANTITY='OPTICAL DENSITY', PBZ=2.5/
&SLCF QUANTITY='OPTICAL DENSITY', PBX=34.5/
&SLCF QUANTITY='VISIBILITY', PBX=34.5/
&SLCF QUANTITY='VISIBILITY', PBX=67.125/
&SLCF QUANTITY='OPTICAL DENSITY', PBY=14.75/
&SLCF QUANTITY='VISIBILITY', PBY=14.75/
&SLCF QUANTITY='VISIBILITY', PBY=4.125/
&SLCF QUANTITY='VELOCITY', VECTOR=.TRUE., PBZ=0.5/
&SLCF QUANTITY='VELOCITY', VECTOR=.TRUE., PBZ=1.0/
&SLCF QUANTITY='VELOCITY', VECTOR=.TRUE., PBZ=1.5/
&SLCF QUANTITY='VELOCITY', VECTOR=.TRUE., PBZ=2.0/
&SLCF QUANTITY='VELOCITY', VECTOR=.TRUE., PBZ=2.5/
&SLCF QUANTITY='VELOCITY', VECTOR=.TRUE., PBX=34.5/
&SLCF QUANTITY='VELOCITY', VECTOR=.TRUE., PBY=14.75/


&TAIL /
