
 Fire Dynamics Simulator

 Current Date     : October 28, 2020  15:29:47
 Revision         : -dirty-master
 Revision Date    : Wed Oct 28 15:04:48 2020 +0100
 Compiler         : Intel ifort 18.0.1
 Compilation Date : Oct 28, 2020 15:16:47

 MPI Enabled;    Number of MPI Processes:       4
 OpenMP Enabled; Number of OpenMP Threads:      2

 MPI version: 3.1
 MPI library version: Intel(R) MPI Library 2018 Update 1 for Linux* OS


 Job TITLE        : Simple 2D Tunnel test of unstructured ScaRC solver
 Job ID string    : dancing_eddies_mgm_expol


 Grid Dimensions, Mesh     1

   Cells in the X Direction            75
   Cells in the Y Direction             1
   Cells in the Z Direction            40
   Number of Grid Cells              3000


 Physical Dimensions, Mesh     1

   Length (m)                       0.075
   Width  (m)                       0.002
   Height (m)                       0.040
   Initial Time Step (s)            0.004

 Grid Dimensions, Mesh     2

   Cells in the X Direction            75
   Cells in the Y Direction             1
   Cells in the Z Direction            40
   Number of Grid Cells              3000


 Physical Dimensions, Mesh     2

   Length (m)                       0.075
   Width  (m)                       0.002
   Height (m)                       0.040
   Initial Time Step (s)            0.004

 Grid Dimensions, Mesh     3

   Cells in the X Direction            75
   Cells in the Y Direction             1
   Cells in the Z Direction            40
   Number of Grid Cells              3000


 Physical Dimensions, Mesh     3

   Length (m)                       0.075
   Width  (m)                       0.002
   Height (m)                       0.040
   Initial Time Step (s)            0.004

 Grid Dimensions, Mesh     4

   Cells in the X Direction            75
   Cells in the Y Direction             1
   Cells in the Z Direction            40
   Number of Grid Cells              3000


 Physical Dimensions, Mesh     4

   Length (m)                       0.075
   Width  (m)                       0.002
   Height (m)                       0.040
   Initial Time Step (s)            0.004

Total Number of Grid Cells         12000


 Miscellaneous Parameters

   Simulation Start Time (s)          0.0
   Simulation End Time (s)            2.0
   Ambient Temperature (C):         20.00


 Mass Fraction Transformation Matrix to Convert Species Mixtures (Columns) to Primitive Species (Rows)

                         AIR     
   AIR                   1.000000


 Primitive Species Information

   AIR
   Gas Species
   Molecular Weight (g/mol)            28.01340
   Ambient Density (kg/m^3)            1.165
   Enthalpy of Formation (J/kg)        0.00E+00


 Tracked (Lumped) Species Information

   AIR
   Molecular Weight (g/mol)            28.01340
   Ambient Density (kg/m^3)            1.165
   Initial Mass Fraction               1.000
   Enthalpy of Formation (J/kg)      0.00E+00

   Sub Species                    Mass Fraction     Mole Fraction
   AIR                            1.000000E+00      1.000000E+00
 
     Viscosity (kg/m/s) Ambient,  293 K:  1.20E-05
                                  500 K:  1.20E-05
                                 1000 K:  1.20E-05
                                 1500 K:  1.20E-05
   Therm. Cond. (W/m/K) Ambient,  293 K:  1.76E-02
                                  500 K:  1.76E-02
                                 1000 K:  1.76E-02
                                 1500 K:  1.76E-02
        Enthalpy (J/kg) Ambient,  293 K:  3.05E+05
                                  500 K:  5.19E+05
                                 1000 K:  1.04E+06
                                 1500 K:  1.56E+06
    Spec. Heat (J/kg/K) Ambient,  293 K:  1.04E+03
                                  500 K:  1.04E+03
                                 1000 K:  1.04E+03
                                 1500 K:  1.04E+03
   Diff. Coeff. (m^2/s) Ambient,  293 K:  1.99E-05
                                  500 K:  4.93E-05
                                 1000 K:  1.57E-04
                                 1500 K:  3.07E-04


 Material Information


 Surface Conditions

   0 INERT

   1 WALL (DEFAULT)

   2 PLATE

   3 BLOW
     Normal Velocity (m/s)        -0.500
     AIR Mass Fraction         1.000

   4 OPEN
     Passive Vent to Atmosphere

   5 MIRROR
     Symmetry Plane

   6 INTERPOLATED

   7 PERIODIC

   8 HVAC

   9 MASSLESS TRACER

  10 DROPLET

  11 EVACUATION_OUTFLOW
     Normal Velocity (m/s)         0.000

  12 MASSLESS TARGET

  13 PERIODIC FLOW ONLY


 Cut-off Density and Temperature

    Minimum Temperature:   -10.0 C
    Maximum Temperature:  2726.8 C
    Minimum Density:  1.165E-01 kg/m3
    Maximum Density:  2.595E+00 kg/m3


 Device Coordinates

     1 Coords:      0.200000      0.000000      0.000000, Make: null, ID: pres, Quantity: PRESSURE
     2 Coords:      0.000010      0.000000      0.000000, Make: null, ID: error, Quantity: MAXIMUM VELOCITY ERROR
     3 Coords:      0.000010      0.000000      0.000000, Make: null, ID: iter, Quantity: PRESSURE ITERATIONS
     4 Coords:      0.000010      0.000000      0.000000, Make: null, ID: cpu, Quantity: CPU TIME
     5 Coords:      0.000010      0.000000      0.000000, Make: null, ID: SCARC_ITE, Quantity: SCARC ITERATIONS
     6 Coords:      0.000010      0.000000      0.000000, Make: null, ID: SCARC_RES, Quantity: SCARC RESIDUAL
     7 Coords:      0.000010      0.000000      0.000000, Make: null, ID: SCARC_CONV, Quantity: SCARC CONVERGENCE RATE


 Slice File Information, Mesh     1

   Sampling Interval (s)             0.002

   1 Nodes:   0  75   1   1   0  40, Quantity: VELOCITY
   2 Nodes:   0  75   1   1   0  40, Quantity: U-VELOCITY
   3 Nodes:   0  75   1   1   0  40, Quantity: W-VELOCITY
   4 Nodes:   0  75   1   1   0  40, Quantity: H
   5 Nodes:   0  75   1   1   0  40, Quantity: PRESSURE


 Radiation Model Information

   Number of control angles   60
   Time step increment         2
   Angle increment             4
   Phi band   N_theta Solid angle
     1:       60     0.209


 USCARC Information

   Discretization             STRUCTURED
   Global solver                     MGM
   Storage technique             COMPACT
 
 

 Run Time Diagnostics

       Time Step       1   October 28, 2020  15:29:49
       Step Size:    0.395E-02 s, Total Time:      0.004 s
       Pressure Iterations:      1
       Maximum Velocity Error:  0.43E-18 on Mesh   1 at (  76   1   9)
       Maximum Pressure Error:  0.57E+06 on Mesh   1 at (  21   1  25)
       ScaRC: iterations   119, residual  0.74E-08, convergence rate   0.80E+00
       ---------------------------------------------------------------
       Mesh    1
       Max CFL number:  0.12E-01 at (  20,   1,  24)
       Max divergence:  0.55E-11 at (  18,   1,   4)
       Min divergence: -0.29E-01 at (  75,   1,  20)
       Max div. error:  0.29E-01 at (  75,   1,  20)
       Max VN number:   0.23E+00 at (  75,   1,  40)
       Mesh    2
       Max CFL number:  0.29E-01 at (  28,   1,  26)
       Max divergence:  0.21E-01 at (  75,   1,  21)
       Min divergence: -0.29E-01 at (   1,   1,  20)
       Max div. error:  0.29E-01 at (   1,   1,  20)
       Max VN number:   0.23E+00 at (  75,   1,  40)
       Mesh    3
       Max CFL number:  0.78E-02 at (  10,   1,   3)
       Max divergence:  0.21E-01 at (   1,   1,  21)
       Min divergence: -0.95E-11 at (  11,   1,   1)
       Max div. error:  0.21E-01 at (   1,   1,  21)
       Max VN number:   0.23E+00 at (  75,   1,  40)
       Mesh    4
       Max CFL number:  0.78E-02 at (  47,   1,   3)
       Max divergence:  0.67E-04 at (   1,   1,  20)
       Min divergence: -0.33E-11 at (  48,   1,   1)
       Max div. error:  0.67E-04 at (   1,   1,  20)
       Max VN number:   0.23E+00 at (  75,   1,  40)
 
       Time Step       2   October 28, 2020  15:29:51
       Step Size:    0.395E-02 s, Total Time:      0.008 s
       Pressure Iterations:      1
       Maximum Velocity Error:  0.87E-18 on Mesh   1 at (  76   1   6)
       Maximum Pressure Error:  0.57E+06 on Mesh   1 at (  21   1  25)
       ScaRC: iterations   119, residual  0.88E-08, convergence rate   0.80E+00
       ---------------------------------------------------------------
       Mesh    1
       Max CFL number:  0.24E-01 at (  20,   1,  24)
       Max divergence:  0.48E-11 at (  24,   1,  33)
       Min divergence: -0.24E-01 at (  75,   1,  20)
       Max div. error:  0.26E-01 at (  75,   1,  20)
       Max VN number:   0.23E+00 at (  18,   1,   4)
       Mesh    2
       Max CFL number:  0.57E-01 at (  25,   1,  26)
       Max divergence:  0.19E-01 at (  75,   1,  21)
       Min divergence: -0.24E-01 at (   1,   1,  20)
       Max div. error:  0.26E-01 at (   1,   1,  20)
       Max VN number:   0.23E+00 at (  75,   1,  21)
       Mesh    3
       Max CFL number:  0.16E-01 at (   1,   1,   1)
       Max divergence:  0.19E-01 at (   1,   1,  21)
       Min divergence: -0.82E-11 at (  11,   1,  37)
       Max div. error:  0.21E-01 at (   1,   1,  21)
       Max VN number:   0.23E+00 at (   1,   1,  21)
       Mesh    4
       Max CFL number:  0.16E-01 at (   1,   1,   1)
       Max divergence:  0.40E-03 at (   1,   1,  21)
       Min divergence: -0.30E-11 at (  48,   1,  37)
       Max div. error:  0.41E-03 at (   1,   1,  21)
       Max VN number:   0.23E+00 at (   1,   1,  20)
 
       Time Step       3   October 28, 2020  15:29:53
       Step Size:    0.395E-02 s, Total Time:       0.01 s
       Pressure Iterations:      1
       Maximum Velocity Error:  0.87E-18 on Mesh   1 at (  76   1  16)
       Maximum Pressure Error:  0.57E+06 on Mesh   1 at (  21   1  25)
       ScaRC: iterations   122, residual  0.93E-08, convergence rate   0.80E+00
       ---------------------------------------------------------------
       Mesh    1
       Max CFL number:  0.35E-01 at (  20,   1,  24)
       Max divergence:  0.47E-11 at (  12,   1,  33)
       Min divergence: -0.18E-01 at (  75,   1,  20)
       Max div. error:  0.22E-01 at (  75,   1,  20)
       Max VN number:   0.23E+00 at (  24,   1,  25)
       Mesh    2
       Max CFL number:  0.85E-01 at (  25,   1,  26)
       Max divergence:  0.16E-01 at (  75,   1,  21)
       Min divergence: -0.18E-01 at (   1,   1,  20)
       Max div. error:  0.22E-01 at (   1,   1,  20)
       Max VN number:   0.23E+00 at (  75,   1,  21)
       Mesh    3
       Max CFL number:  0.23E-01 at (   1,   1,  40)
       Max divergence:  0.16E-01 at (   1,   1,  21)
       Min divergence: -0.78E-11 at (  11,   1,  37)
       Max div. error:  0.20E-01 at (   1,   1,  21)
       Max VN number:   0.23E+00 at (   1,   1,  21)
       Mesh    4
       Max CFL number:  0.23E-01 at (   1,   1,  40)
       Max divergence:  0.94E-03 at (   1,   1,  21)
       Min divergence: -0.27E-11 at (  48,   1,  37)
       Max div. error:  0.10E-02 at (   1,   1,  21)
       Max VN number:   0.23E+00 at (   1,   1,  21)
 
       Time Step       4   October 28, 2020  15:29:55
       Step Size:    0.395E-02 s, Total Time:       0.02 s
       Pressure Iterations:      1
       Maximum Velocity Error:  0.17E-17 on Mesh   1 at (  76   1   5)
       Maximum Pressure Error:  0.57E+06 on Mesh   1 at (  21   1  25)
       ScaRC: iterations   124, residual  0.92E-08, convergence rate   0.80E+00
       ---------------------------------------------------------------
       Mesh    1
       Max CFL number:  0.46E-01 at (  20,   1,  24)
       Max divergence:  0.48E-11 at (  17,   1,   4)
       Min divergence: -0.17E-01 at (  75,   1,   3)
       Max div. error:  0.21E-01 at (  75,   1,   1)
       Max VN number:   0.23E+00 at (  13,   1,   4)
       Mesh    2
       Max CFL number:  0.11E+00 at (  25,   1,  26)
       Max divergence:  0.13E-01 at (  75,   1,  37)
       Min divergence: -0.17E-01 at (   1,   1,   3)
       Max div. error:  0.21E-01 at (   1,   1,   1)
       Max VN number:   0.23E+00 at (  75,   1,  21)
       Mesh    3
       Max CFL number:  0.31E-01 at (   1,   1,  40)
       Max divergence:  0.13E-01 at (   1,   1,  37)
       Min divergence: -0.66E-11 at (  11,   1,  37)
       Max div. error:  0.17E-01 at (   1,   1,  40)
       Max VN number:   0.23E+00 at (   1,   1,  21)
       Mesh    4
       Max CFL number:  0.31E-01 at (   1,   1,  40)
       Max divergence:  0.16E-02 at (   1,   1,  21)
       Min divergence: -0.25E-11 at (  48,   1,  37)
       Max div. error:  0.18E-02 at (   1,   1,  21)
       Max VN number:   0.23E+00 at (   1,   1,  21)
 
       Time Step       5   October 28, 2020  15:29:57
       Step Size:    0.395E-02 s, Total Time:       0.02 s
       Pressure Iterations:      1
       Maximum Velocity Error:  0.17E-17 on Mesh   1 at (  76   1   4)
       Maximum Pressure Error:  0.57E+06 on Mesh   1 at (  21   1  25)
       ScaRC: iterations   125, residual  0.78E-08, convergence rate   0.80E+00
       ---------------------------------------------------------------
       Mesh    1
       Max CFL number:  0.57E-01 at (  20,   1,  24)
       Max divergence:  0.45E-11 at (  48,   1,   4)
       Min divergence: -0.16E-01 at (  75,   1,  38)
       Max div. error:  0.21E-01 at (  75,   1,  40)
       Max VN number:   0.23E+00 at (  17,   1,   4)
       Mesh    2
       Max CFL number:  0.14E+00 at (  25,   1,  26)
       Max divergence:  0.98E-02 at (  75,   1,  37)
       Min divergence: -0.16E-01 at (   1,   1,  38)
       Max div. error:  0.21E-01 at (   1,   1,  40)
       Max VN number:   0.23E+00 at (  75,   1,  21)
       Mesh    3
       Max CFL number:  0.39E-01 at (   1,   1,  40)
       Max divergence:  0.94E-02 at (   1,   1,  37)
       Min divergence: -0.65E-11 at (  12,   1,  37)
       Max div. error:  0.15E-01 at (   1,   1,  40)
       Max VN number:   0.23E+00 at (   1,   1,  21)
       Mesh    4
       Max CFL number:  0.39E-01 at (   1,   1,  40)
       Max divergence:  0.24E-02 at (   1,   1,  22)
       Min divergence: -0.23E-11 at (  48,   1,  37)
       Max div. error:  0.27E-02 at (   1,   1,  22)
       Max VN number:   0.23E+00 at (   1,   1,  21)
 
       Time Step       6   October 28, 2020  15:29:59
       Step Size:    0.395E-02 s, Total Time:       0.02 s
       Pressure Iterations:      1
       Maximum Velocity Error:  0.17E-17 on Mesh   1 at (  76   1   1)
       Maximum Pressure Error:  0.57E+06 on Mesh   1 at (  21   1  25)
       ScaRC: iterations   125, residual  0.97E-08, convergence rate   0.80E+00
       ---------------------------------------------------------------
       Mesh    1
       Max CFL number:  0.67E-01 at (  20,   1,  24)
       Max divergence:  0.45E-11 at (  34,   1,  34)
       Min divergence: -0.14E-01 at (  75,   1,  38)
       Max div. error:  0.20E-01 at (  75,   1,  40)
       Max VN number:   0.23E+00 at (  17,   1,  33)
       Mesh    2
       Max CFL number:  0.16E+00 at (  25,   1,  26)
       Max divergence:  0.62E-02 at (  75,   1,  37)
       Min divergence: -0.13E-01 at (   1,   1,  38)
       Max div. error:  0.20E-01 at (   1,   1,  40)
       Max VN number:   0.23E+00 at (  75,   1,  21)
       Mesh    3
       Max CFL number:  0.47E-01 at (   1,   1,  40)
       Max divergence:  0.56E-02 at (   1,   1,  37)
       Min divergence: -0.35E-02 at (   1,   1,   1)
       Max div. error:  0.11E-01 at (   1,   1,  40)
       Max VN number:   0.23E+00 at (   1,   1,  21)
       Mesh    4
       Max CFL number:  0.47E-01 at (   1,   1,  40)
       Max divergence:  0.32E-02 at (   1,   1,  34)
       Min divergence: -0.22E-11 at (  48,   1,  37)
       Max div. error:  0.38E-02 at (   1,   1,  40)
       Max VN number:   0.23E+00 at (   1,   1,  21)
 
       Time Step       7   October 28, 2020  15:30:00
       Step Size:    0.395E-02 s, Total Time:       0.03 s
       Pressure Iterations:      1
       Maximum Velocity Error:  0.17E-17 on Mesh   1 at (  76   1   8)
       Maximum Pressure Error:  0.57E+06 on Mesh   1 at (  21   1  25)
       ScaRC: iterations   125, residual  0.97E-08, convergence rate   0.80E+00
       ---------------------------------------------------------------
       Mesh    1
       Max CFL number:  0.77E-01 at (  20,   1,  24)
       Max divergence:  0.85E-03 at (  75,   1,   1)
       Min divergence: -0.99E-02 at (  75,   1,  38)
       Max div. error:  0.16E-01 at (  75,   1,  40)
       Max VN number:   0.23E+00 at (  17,   1,   4)
       Mesh    2
       Max CFL number:  0.18E+00 at (  25,   1,  26)
       Max divergence:  0.47E-02 at (  74,   1,  36)
       Min divergence: -0.89E-02 at (   1,   1,  38)
       Max div. error:  0.16E-01 at (   1,   1,  40)
       Max VN number:   0.23E+00 at (  75,   1,  36)
       Mesh    3
       Max CFL number:  0.55E-01 at (   1,   1,  40)
       Max divergence:  0.41E-02 at (  75,   1,  34)
       Min divergence: -0.66E-02 at (   1,   1,  40)
       Max div. error:  0.75E-02 at (   1,   1,  40)
       Max VN number:   0.23E+00 at (   1,   1,  36)
       Mesh    4
       Max CFL number:  0.55E-01 at (   1,   1,  40)
       Max divergence:  0.40E-02 at (   1,   1,  34)
       Min divergence: -0.21E-11 at (  48,   1,  37)
       Max div. error:  0.48E-02 at (   1,   1,  40)
       Max VN number:   0.23E+00 at (   1,   1,  21)
 
       Time Step       8   October 28, 2020  15:30:02
       Step Size:    0.395E-02 s, Total Time:       0.03 s
       Pressure Iterations:      1
       Maximum Velocity Error:  0.35E-17 on Mesh   1 at (  76   1   5)
       Maximum Pressure Error:  0.57E+06 on Mesh   1 at (  21   1  25)
       ScaRC: iterations   126, residual  0.95E-08, convergence rate   0.80E+00
       ---------------------------------------------------------------
       Mesh    1
       Max CFL number:  0.88E-01 at (  20,   1,  24)
       Max divergence:  0.50E-02 at (  75,   1,   1)
       Min divergence: -0.60E-02 at (  74,   1,  37)
       Max div. error:  0.12E-01 at (  75,   1,  40)
       Max VN number:   0.23E+00 at (  17,   1,   4)
       Mesh    2
       Max CFL number:  0.21E+00 at (  25,   1,  26)
       Max divergence:  0.69E-02 at (   1,   1,   1)
       Min divergence: -0.76E-02 at (  75,   1,  40)
       Max div. error:  0.12E-01 at (   1,   1,  40)
       Max VN number:   0.23E+00 at (  75,   1,  36)
       Mesh    3
       Max CFL number:  0.63E-01 at (   1,   1,  11)
       Max divergence:  0.48E-02 at (  75,   1,   7)
       Min divergence: -0.90E-02 at (   1,   1,  40)
       Max div. error:  0.58E-02 at (  75,   1,  40)
       Max VN number:   0.23E+00 at (   1,   1,  36)
       Mesh    4
       Max CFL number:  0.63E-01 at (   1,   1,  40)
       Max divergence:  0.46E-02 at (   1,   1,  34)
       Min divergence: -0.20E-11 at (  48,   1,  37)
       Max div. error:  0.58E-02 at (   1,   1,  40)
       Max VN number:   0.23E+00 at (   1,   1,  23)
 
       Time Step       9   October 28, 2020  15:30:04
       Step Size:    0.395E-02 s, Total Time:       0.04 s
       Pressure Iterations:      1
       Maximum Velocity Error:  0.35E-17 on Mesh   1 at (  76   1   1)
       Maximum Pressure Error:  0.57E+06 on Mesh   1 at (  21   1  25)
       ScaRC: iterations   127, residual  0.77E-08, convergence rate   0.80E+00
       ---------------------------------------------------------------
       Mesh    1
       Max CFL number:  0.98E-01 at (  20,   1,  24)
       Max divergence:  0.83E-02 at (  75,   1,   1)
       Min divergence: -0.58E-02 at (  74,   1,  37)
       Max div. error:  0.75E-02 at (  75,   1,  21)
       Max VN number:   0.23E+00 at (  24,   1,  34)
       Mesh    2
       Max CFL number:  0.23E+00 at (  25,   1,  26)
       Max divergence:  0.11E-01 at (   1,   1,   1)
       Min divergence: -0.92E-02 at (  75,   1,  40)
       Max div. error:  0.75E-02 at (   1,   1,  21)
       Max VN number:   0.23E+00 at (  75,   1,  36)
       Mesh    3
       Max CFL number:  0.71E-01 at (   1,   1,  10)
       Max divergence:  0.53E-02 at (  75,   1,   7)
       Min divergence: -0.11E-01 at (   1,   1,  40)
       Max div. error:  0.66E-02 at (  75,   1,  40)
       Max VN number:   0.23E+00 at (   1,   1,  36)
       Mesh    4
       Max CFL number:  0.70E-01 at (   1,   1,  40)
       Max divergence:  0.51E-02 at (   1,   1,  34)
       Min divergence: -0.19E-11 at (  48,   1,  13)
       Max div. error:  0.66E-02 at (   1,   1,  40)
       Max VN number:   0.23E+00 at (   1,   1,  34)
 
       Time Step      10   October 28, 2020  15:30:06
       Step Size:    0.395E-02 s, Total Time:       0.04 s
       Pressure Iterations:      1
       Maximum Velocity Error:  0.35E-17 on Mesh   1 at (  76   1   8)
       Maximum Pressure Error:  0.57E+06 on Mesh   1 at (  21   1  25)
       ScaRC: iterations   127, residual  0.87E-08, convergence rate   0.80E+00
       ---------------------------------------------------------------
       Mesh    1
       Max CFL number:  0.11E+00 at (  20,   1,  24)
       Max divergence:  0.10E-01 at (  75,   1,   1)
       Min divergence: -0.52E-02 at (  74,   1,  37)
       Max div. error:  0.64E-02 at (  75,   1,  21)
       Max VN number:   0.23E+00 at (  17,   1,  33)
       Mesh    2
       Max CFL number:  0.25E+00 at (  25,   1,  26)
       Max divergence:  0.13E-01 at (   1,   1,   1)
       Min divergence: -0.10E-01 at (  75,   1,  40)
       Max div. error:  0.64E-02 at (   1,   1,  21)
       Max VN number:   0.23E+00 at (  75,   1,  36)
       Mesh    3
       Max CFL number:  0.78E-01 at (   1,   1,  10)
       Max divergence:  0.56E-02 at (  75,   1,   7)
       Min divergence: -0.12E-01 at (   1,   1,  40)
       Max div. error:  0.72E-02 at (  75,   1,  40)
       Max VN number:   0.23E+00 at (   1,   1,  36)
       Mesh    4
       Max CFL number:  0.78E-01 at (   1,   1,  40)
       Max divergence:  0.53E-02 at (   1,   1,  34)
       Min divergence: -0.19E-11 at (  48,   1,  36)
       Max div. error:  0.72E-02 at (   1,   1,  40)
       Max VN number:   0.23E+00 at (   1,   1,  34)
 
       Time Step      20   October 28, 2020  15:30:25
       Step Size:    0.395E-02 s, Total Time:       0.08 s
       Pressure Iterations:      1
       Maximum Velocity Error:  0.69E-17 on Mesh   1 at (  76   1   1)
       Maximum Pressure Error:  0.57E+06 on Mesh   1 at (  21   1  25)
       ScaRC: iterations   130, residual  0.68E-08, convergence rate   0.80E+00
       ---------------------------------------------------------------
       Mesh    1
       Max CFL number:  0.22E+00 at (  20,   1,  23)
       Max divergence:  0.85E-02 at (  75,   1,  38)
       Min divergence: -0.35E-03 at (  73,   1,   6)
       Max div. error:  0.10E-01 at (  75,   1,  40)
       Max VN number:   0.23E+00 at (  75,   1,  40)
       Mesh    2
       Max CFL number:  0.49E+00 at (  25,   1,  27)
       Max divergence:  0.82E-02 at (   1,   1,   3)
       Min divergence: -0.11E-01 at (  75,   1,   3)
       Max div. error:  0.15E-01 at (  75,   1,   1)
       Max VN number:   0.23E+00 at (   1,   1,  40)
       Mesh    3
       Max CFL number:  0.16E+00 at (   2,   1,   9)
       Max divergence:  0.27E-02 at (   2,   1,   1)
       Min divergence: -0.85E-02 at (   1,   1,   4)
       Max div. error:  0.15E-01 at (   1,   1,   1)
       Max VN number:   0.23E+00 at (  75,   1,  34)
       Mesh    4
       Max CFL number:  0.16E+00 at (   1,   1,  19)
       Max divergence:  0.76E-03 at (   4,   1,  10)
       Min divergence: -0.77E-02 at (   1,   1,  39)
       Max div. error:  0.50E-02 at (   1,   1,  20)
       Max VN number:   0.23E+00 at (   1,   1,  33)
 
       Time Step      30   October 28, 2020  15:30:47
       Step Size:    0.263E-02 s, Total Time:       0.11 s
       Pressure Iterations:      1
       Maximum Velocity Error:  0.69E-17 on Mesh   1 at (  76   1   5)
       Maximum Pressure Error:  0.57E+06 on Mesh   1 at (  21   1  25)
       ScaRC: iterations   128, residual  0.93E-08, convergence rate   0.80E+00
       ---------------------------------------------------------------
       Mesh    1
       Max CFL number:  0.21E+00 at (  20,   1,  23)
       Max divergence:  0.55E-03 at (  74,   1,  21)
       Min divergence: -0.23E-02 at (  75,   1,   1)
       Max div. error:  0.22E-02 at (  75,   1,  20)
       Max VN number:   0.15E+00 at (  75,   1,   2)
       Mesh    2
       Max CFL number:  0.47E+00 at (  25,   1,  27)
       Max divergence:  0.45E-02 at (  75,   1,  39)
       Min divergence: -0.44E-02 at (   1,   1,   1)
       Max div. error:  0.58E-02 at (  75,   1,  20)
       Max VN number:   0.15E+00 at (   1,   1,  39)
       Mesh    3
       Max CFL number:  0.14E+00 at (   4,   1,   6)
       Max divergence:  0.83E-02 at (   1,   1,  39)
       Min divergence: -0.74E-02 at (  75,   1,   3)
       Max div. error:  0.92E-02 at (  75,   1,  26)
       Max VN number:   0.15E+00 at (   6,   1,  32)
       Mesh    4
       Max CFL number:  0.14E+00 at (   3,   1,  19)
       Max divergence:  0.29E-02 at (   2,   1,   1)
       Min divergence: -0.54E-02 at (   1,   1,   3)
       Max div. error:  0.92E-02 at (   1,   1,  26)
       Max VN number:   0.15E+00 at (   4,   1,  32)
 
       Time Step      40   October 28, 2020  15:31:07
       Step Size:    0.205E-02 s, Total Time:       0.13 s
       Pressure Iterations:      1
       Maximum Velocity Error:  0.14E-16 on Mesh   1 at (  76   1  36)
       Maximum Pressure Error:  0.57E+06 on Mesh   1 at (  21   1  25)
       ScaRC: iterations   129, residual  0.79E-08, convergence rate   0.79E+00
       ---------------------------------------------------------------
       Mesh    1
       Max CFL number:  0.20E+00 at (  20,   1,  23)
       Max divergence:  0.33E-11 at (  47,   1,  37)
       Min divergence: -0.23E-02 at (  75,   1,  21)
       Max div. error:  0.27E-02 at (  75,   1,  21)
       Max VN number:   0.12E+00 at (  36,   1,  33)
       Mesh    2
       Max CFL number:  0.46E+00 at (  25,   1,  27)
       Max divergence:  0.11E-02 at (   5,   1,   4)
       Min divergence: -0.20E-02 at (  75,   1,   1)
       Max div. error:  0.27E-02 at (   1,   1,  21)
       Max VN number:   0.12E+00 at (   3,   1,  39)
       Mesh    3
       Max CFL number:  0.14E+00 at (   3,   1,   2)
       Max divergence:  0.72E-02 at (  75,   1,  39)
       Min divergence: -0.26E-02 at (   1,   1,   1)
       Max div. error:  0.84E-02 at (  75,   1,  40)
       Max VN number:   0.12E+00 at (   8,   1,  32)
       Mesh    4
       Max CFL number:  0.14E+00 at (   5,   1,  18)
       Max divergence:  0.91E-02 at (   1,   1,  39)
       Min divergence: -0.12E-02 at (   5,   1,   3)
       Max div. error:  0.84E-02 at (   1,   1,  40)
       Max VN number:   0.12E+00 at (   6,   1,  32)
 
       Time Step      50   October 28, 2020  15:31:28
       Step Size:    0.183E-02 s, Total Time:       0.15 s
       Pressure Iterations:      1
       Maximum Velocity Error:  0.14E-16 on Mesh   1 at (  76   1   1)
       Maximum Pressure Error:  0.57E+06 on Mesh   1 at (  21   1  25)
       ScaRC: iterations   129, residual  0.80E-08, convergence rate   0.79E+00
       ---------------------------------------------------------------
       Mesh    1
       Max CFL number:  0.21E+00 at (  20,   1,  23)
       Max divergence:  0.28E-11 at (  33,   1,  37)
       Min divergence: -0.13E-02 at (  75,   1,  21)
       Max div. error:  0.11E-02 at (  75,   1,  21)
       Max VN number:   0.11E+00 at (  52,   1,  33)
       Mesh    2
       Max CFL number:  0.47E+00 at (  25,   1,  27)
       Max divergence:  0.12E-02 at (  75,   1,   1)
       Min divergence: -0.52E-03 at (   5,   1,  32)
       Max div. error:  0.11E-02 at (   1,   1,  21)
       Max VN number:   0.11E+00 at (  71,   1,  21)
       Mesh    3
       Max CFL number:  0.14E+00 at (   4,   1,  33)
       Max divergence:  0.20E-02 at (  75,   1,   4)
       Min divergence: -0.67E-03 at (   8,   1,   5)
       Max div. error:  0.26E-02 at (  75,   1,  40)
       Max VN number:   0.11E+00 at (  75,   1,  38)
       Mesh    4
       Max CFL number:  0.14E+00 at (   6,   1,  18)
       Max divergence:  0.21E-02 at (   3,   1,   2)
       Min divergence: -0.31E-02 at (   1,   1,  40)
       Max div. error:  0.26E-02 at (   1,   1,  40)
       Max VN number:   0.11E+00 at (   1,   1,   2)
 
       Time Step      60   October 28, 2020  15:31:47
       Step Size:    0.164E-02 s, Total Time:       0.17 s
       Pressure Iterations:      1
       Maximum Velocity Error:  0.14E-16 on Mesh   1 at (  76   1   1)
       Maximum Pressure Error:  0.56E+06 on Mesh   1 at (  21   1  25)
       ScaRC: iterations   129, residual  0.89E-08, convergence rate   0.79E+00
       ---------------------------------------------------------------
       Mesh    1
       Max CFL number:  0.21E+00 at (  20,   1,  23)
       Max divergence:  0.21E-02 at (  75,   1,  39)
       Min divergence: -0.12E-04 at (  73,   1,  20)
       Max div. error:  0.23E-02 at (  75,   1,  40)
       Max VN number:   0.95E-01 at (  75,   1,  40)
       Mesh    2
       Max CFL number:  0.46E+00 at (  25,   1,  27)
       Max divergence:  0.22E-02 at (   1,   1,  39)
       Min divergence: -0.38E-03 at (   6,   1,  20)
       Max div. error:  0.23E-02 at (   1,   1,  40)
       Max VN number:   0.95E-01 at (  75,   1,   3)
       Mesh    3
       Max CFL number:  0.14E+00 at (   5,   1,  33)
       Max divergence:  0.13E-02 at (   1,   1,  38)
       Min divergence: -0.49E-02 at (  75,   1,   2)
       Max div. error:  0.55E-02 at (  75,   1,  40)
       Max VN number:   0.95E-01 at (   1,   1,   2)
       Mesh    4
       Max CFL number:  0.14E+00 at (   8,   1,  19)
       Max divergence:  0.98E-03 at (   5,   1,   2)
       Min divergence: -0.50E-02 at (   1,   1,  39)
       Max div. error:  0.55E-02 at (   1,   1,  40)
       Max VN number:   0.95E-01 at (   2,   1,   3)
 
       Time Step      70   October 28, 2020  15:32:06
       Step Size:    0.147E-02 s, Total Time:       0.19 s
       Pressure Iterations:      1
       Maximum Velocity Error:  0.14E-16 on Mesh   1 at (  76   1   4)
       Maximum Pressure Error:  0.56E+06 on Mesh   1 at (  21   1  25)
       ScaRC: iterations   129, residual  0.86E-08, convergence rate   0.79E+00
       ---------------------------------------------------------------
       Mesh    1
       Max CFL number:  0.20E+00 at (  20,   1,  25)
       Max divergence:  0.30E-02 at (  75,   1,  20)
       Min divergence: -0.53E-07 at (  71,   1,  20)
       Max div. error:  0.33E-02 at (  75,   1,  20)
       Max VN number:   0.85E-01 at (  75,   1,  20)
       Mesh    2
       Max CFL number:  0.45E+00 at (  25,   1,  27)
       Max divergence:  0.24E-02 at (   1,   1,  20)
       Min divergence: -0.24E-02 at (  75,   1,  39)
       Max div. error:  0.33E-02 at (   1,   1,  20)
       Max VN number:   0.85E-01 at (   1,   1,  39)
       Mesh    3
       Max CFL number:  0.14E+00 at (   6,   1,  33)
       Max divergence:  0.11E-02 at (  75,   1,  40)
       Min divergence: -0.25E-02 at (   1,   1,   2)
       Max div. error:  0.27E-02 at (   1,   1,  21)
       Max VN number:   0.85E-01 at (   2,   1,   3)
       Mesh    4
       Max CFL number:  0.14E+00 at (   9,   1,  18)
       Max divergence:  0.27E-02 at (   1,   1,  40)
       Min divergence: -0.79E-03 at (   3,   1,  38)
       Max div. error:  0.42E-03 at (   1,   1,  40)
       Max VN number:   0.85E-01 at (  11,   1,  30)
 
       Time Step      80   October 28, 2020  15:32:24
       Step Size:    0.147E-02 s, Total Time:       0.20 s
       Pressure Iterations:      1
       Maximum Velocity Error:  0.14E-16 on Mesh   1 at (  76   1   3)
       Maximum Pressure Error:  0.56E+06 on Mesh   1 at (  21   1  25)
       ScaRC: iterations   130, residual  0.77E-08, convergence rate   0.79E+00
       ---------------------------------------------------------------
       Mesh    1
       Max CFL number:  0.23E+00 at (  20,   1,  25)
       Max divergence:  0.12E-03 at (  74,   1,  21)
       Min divergence: -0.15E-02 at (  75,   1,   1)
       Max div. error:  0.17E-02 at (  75,   1,  20)
       Max VN number:   0.85E-01 at (  75,   1,  21)
       Mesh    2
       Max CFL number:  0.48E+00 at (  25,   1,  27)
       Max divergence:  0.19E-02 at (  75,   1,   1)
       Min divergence: -0.26E-02 at (   1,   1,   1)
       Max div. error:  0.19E-02 at (  75,   1,  21)
       Max VN number:   0.85E-01 at (   2,   1,  38)
       Mesh    3
       Max CFL number:  0.15E+00 at (   8,   1,  33)
       Max divergence:  0.25E-02 at (   1,   1,   1)
       Min divergence: -0.38E-03 at (   5,   1,  21)
       Max div. error:  0.27E-02 at (  75,   1,  40)
       Max VN number:   0.85E-01 at (  75,   1,   2)
       Mesh    4
       Max CFL number:  0.15E+00 at (  11,   1,  18)
       Max divergence:  0.22E-02 at (   1,   1,  39)
       Min divergence: -0.40E-03 at (   5,   1,   2)
       Max div. error:  0.27E-02 at (   1,   1,  40)
       Max VN number:   0.85E-01 at (  12,   1,  30)
 
       Time Step      90   October 28, 2020  15:32:43
       Step Size:    0.132E-02 s, Total Time:       0.21 s
       Pressure Iterations:      1
       Maximum Velocity Error:  0.14E-16 on Mesh   1 at (  76   1   3)
       Maximum Pressure Error:  0.57E+06 on Mesh   1 at (  21   1  25)
       ScaRC: iterations   130, residual  0.65E-08, convergence rate   0.79E+00
       ---------------------------------------------------------------
       Mesh    1
       Max CFL number:  0.22E+00 at (  20,   1,  25)
       Max divergence:  0.31E-07 at (  71,   1,  21)
       Min divergence: -0.18E-02 at (  75,   1,  20)
       Max div. error:  0.20E-02 at (  75,   1,  20)
       Max VN number:   0.76E-01 at (  72,   1,  21)
       Mesh    2
       Max CFL number:  0.45E+00 at (  25,   1,  27)
       Max divergence:  0.23E-02 at (  75,   1,  21)
       Min divergence: -0.14E-02 at (   1,   1,  20)
       Max div. error:  0.26E-02 at (  75,   1,  20)
       Max VN number:   0.76E-01 at (   4,   1,  37)
       Mesh    3
       Max CFL number:  0.14E+00 at (   9,   1,  33)
       Max divergence:  0.19E-02 at (   1,   1,  20)
       Min divergence: -0.63E-03 at (   2,   1,  40)
       Max div. error:  0.26E-02 at (   1,   1,  20)
       Max VN number:   0.76E-01 at (   1,   1,   3)
       Mesh    4
       Max CFL number:  0.14E+00 at (  12,   1,  18)
       Max divergence:  0.38E-03 at (   1,   1,   4)
       Min divergence: -0.92E-03 at (   2,   1,   1)
       Max div. error:  0.85E-03 at (   1,   1,   1)
       Max VN number:   0.76E-01 at (   1,   1,   3)
 
       Time Step     100   October 28, 2020  15:33:00
       Step Size:    0.132E-02 s, Total Time:       0.23 s
       Pressure Iterations:      1
       Maximum Velocity Error:  0.14E-16 on Mesh   1 at (  76   1   1)
       Maximum Pressure Error:  0.57E+06 on Mesh   1 at (  21   1  25)
       ScaRC: iterations   129, residual  0.93E-08, convergence rate   0.79E+00
       ---------------------------------------------------------------
       Mesh    1
       Max CFL number:  0.24E+00 at (  20,   1,  25)
       Max divergence:  0.18E-02 at (  75,   1,   2)
       Min divergence: -0.59E-05 at (  73,   1,  21)
       Max div. error:  0.20E-02 at (  75,   1,  10)
       Max VN number:   0.76E-01 at (  75,   1,  40)
       Mesh    2
       Max CFL number:  0.48E+00 at (  25,   1,  27)
       Max divergence:  0.20E-02 at (   1,   1,   2)
       Min divergence: -0.21E-02 at (  75,   1,  39)
       Max div. error:  0.24E-02 at (  75,   1,  21)
       Max VN number:   0.76E-01 at (   5,   1,  37)
       Mesh    3
       Max CFL number:  0.15E+00 at (  10,   1,  33)
       Max divergence:  0.40E-03 at (  11,   1,   3)
       Min divergence: -0.24E-02 at (   1,   1,   2)
       Max div. error:  0.24E-02 at (   1,   1,  21)
       Max VN number:   0.76E-01 at (   2,   1,  20)
       Mesh    4
       Max CFL number:  0.15E+00 at (  14,   1,  18)
       Max divergence:  0.24E-03 at (   5,   1,   3)
       Min divergence: -0.82E-03 at (   1,   1,  40)
       Max div. error:  0.48E-03 at (   1,   1,   1)
       Max VN number:   0.76E-01 at (  15,   1,  29)
 
       Time Step     200   October 28, 2020  15:35:56
       Step Size:    0.957E-03 s, Total Time:       0.34 s
       Pressure Iterations:      1
       Maximum Velocity Error:  0.28E-16 on Mesh   1 at (  76   1   3)
       Maximum Pressure Error:  0.57E+06 on Mesh   1 at (  21   1  25)
       ScaRC: iterations   131, residual  0.68E-08, convergence rate   0.79E+00
       ---------------------------------------------------------------
       Mesh    1
       Max CFL number:  0.27E+00 at (  20,   1,  25)
       Max divergence:  0.73E-03 at (  75,   1,  38)
       Min divergence: -0.51E-11 at (  20,   1,  25)
       Max div. error:  0.65E-03 at (  75,   1,  40)
       Max VN number:   0.56E-01 at (  75,   1,  21)
       Mesh    2
       Max CFL number:  0.47E+00 at (  25,   1,  14)
       Max divergence:  0.63E-03 at (  25,   1,  25)
       Min divergence: -0.54E-03 at (   2,   1,  40)
       Max div. error:  0.65E-03 at (   1,   1,  40)
       Max VN number:   0.56E-01 at (   1,   1,  21)
       Mesh    3
       Max CFL number:  0.16E+00 at (   1,   1,  36)
       Max divergence:  0.44E-03 at (   1,   1,  40)
       Min divergence: -0.46E-03 at (  75,   1,   6)
       Max div. error:  0.46E-03 at (  75,   1,  40)
       Max VN number:   0.56E-01 at (   4,   1,  36)
       Mesh    4
       Max CFL number:  0.16E+00 at (  29,   1,  17)
       Max divergence:  0.26E-03 at (   2,   1,   1)
       Min divergence: -0.33E-03 at (   1,   1,   4)
       Max div. error:  0.46E-03 at (   1,   1,  40)
       Max VN number:   0.56E-01 at (  31,   1,  27)
 
       Time Step     300   October 28, 2020  15:38:47
       Step Size:    0.774E-03 s, Total Time:       0.43 s
       Pressure Iterations:      1
       Maximum Velocity Error:  0.28E-16 on Mesh   1 at (  76   1   5)
       Maximum Pressure Error:  0.57E+06 on Mesh   1 at (  21   1  25)
       ScaRC: iterations   131, residual  0.96E-08, convergence rate   0.79E+00
       ---------------------------------------------------------------
       Mesh    1
       Max CFL number:  0.28E+00 at (  20,   1,  25)
       Max divergence:  0.12E-06 at (  73,   1,  21)
       Min divergence: -0.23E-03 at (  75,   1,  20)
       Max div. error:  0.25E-03 at (  75,   1,  20)
       Max VN number:   0.45E-01 at (  74,   1,  21)
       Mesh    2
       Max CFL number:  0.45E+00 at (  25,   1,  27)
       Max divergence:  0.48E-03 at (  75,   1,  14)
       Min divergence: -0.31E-03 at (  48,   1,  20)
       Max div. error:  0.49E-03 at (  75,   1,  20)
       Max VN number:   0.45E-01 at (  42,   1,  35)
       Mesh    3
       Max CFL number:  0.16E+00 at (   1,   1,   6)
       Max divergence:  0.76E-03 at (  75,   1,   3)
       Min divergence: -0.72E-04 at (  37,   1,  22)
       Max div. error:  0.80E-03 at (  75,   1,  39)
       Max VN number:   0.45E-01 at (  18,   1,  21)
       Mesh    4
       Max CFL number:  0.16E+00 at (  46,   1,  18)
       Max divergence:  0.71E-03 at (   1,   1,   3)
       Min divergence: -0.40E-04 at (   6,   1,  38)
       Max div. error:  0.80E-03 at (   1,   1,  39)
       Max VN number:   0.45E-01 at (  48,   1,  25)
 
       Time Step     400   October 28, 2020  15:41:35
       Step Size:    0.697E-03 s, Total Time:       0.50 s
       Pressure Iterations:      1
       Maximum Velocity Error:  0.28E-16 on Mesh   1 at (  76   1   5)
       Maximum Pressure Error:  0.57E+06 on Mesh   1 at (  21   1  25)
       ScaRC: iterations   126, residual  0.83E-08, convergence rate   0.78E+00
       ---------------------------------------------------------------
       Mesh    1
       Max CFL number:  0.29E+00 at (  20,   1,  25)
       Max divergence:  0.36E-04 at (  75,   1,  40)
       Min divergence: -0.12E-04 at (  75,   1,  21)
       Max div. error:  0.43E-04 at (  75,   1,  40)
       Max VN number:   0.40E-01 at (  69,   1,  32)
       Mesh    2
       Max CFL number:  0.46E+00 at (  25,   1,  14)
       Max divergence:  0.20E-03 at (  53,   1,  20)
       Min divergence: -0.21E-03 at (  67,   1,  20)
       Max div. error:  0.43E-04 at (   1,   1,  40)
       Max VN number:   0.40E-01 at (  43,   1,  36)
       Mesh    3
       Max CFL number:  0.17E+00 at (   1,   1,   5)
       Max divergence:  0.78E-04 at (  57,   1,   5)
       Min divergence: -0.58E-04 at (  75,   1,  40)
       Max div. error:  0.59E-04 at (  75,   1,  40)
       Max VN number:   0.40E-01 at (  34,   1,  21)
       Mesh    4
       Max CFL number:  0.16E+00 at (  62,   1,  18)
       Max divergence:  0.50E-04 at (   5,   1,  40)
       Min divergence: -0.10E-03 at (   1,   1,   1)
       Max div. error:  0.59E-04 at (   1,   1,  40)
       Max VN number:   0.40E-01 at (  64,   1,  24)
 
       Time Step     500   October 28, 2020  15:44:23
       Step Size:    0.627E-03 s, Total Time:       0.57 s
       Pressure Iterations:      1
       Maximum Velocity Error:  0.56E-16 on Mesh   1 at (  76   1  40)
       Maximum Pressure Error:  0.57E+06 on Mesh   1 at (  21   1  25)
       ScaRC: iterations   132, residual  0.69E-08, convergence rate   0.78E+00
       ---------------------------------------------------------------
       Mesh    1
       Max CFL number:  0.30E+00 at (  20,   1,  25)
       Max divergence:  0.89E-12 at (  31,   1,  37)
       Min divergence: -0.16E-03 at (  75,   1,  22)
       Max div. error:  0.16E-03 at (  75,   1,  20)
       Max VN number:   0.36E-01 at (  69,   1,  25)
       Mesh    2
       Max CFL number:  0.46E+00 at (  25,   1,  14)
       Max divergence:  0.22E-03 at (  28,   1,  21)
       Min divergence: -0.24E-03 at (  75,   1,  24)
       Max div. error:  0.16E-03 at (   1,   1,  20)
       Max VN number:   0.36E-01 at (  65,   1,  32)
       Mesh    3
       Max CFL number:  0.17E+00 at (   1,   1,   6)
       Max divergence:  0.11E-03 at (   6,   1,  18)
       Min divergence: -0.23E-03 at (   1,   1,  24)
       Max div. error:  0.20E-03 at (  75,   1,  40)
       Max VN number:   0.36E-01 at (  51,   1,  21)
       Mesh    4
       Max CFL number:  0.16E+00 at (   1,   1,  18)
       Max divergence:  0.73E-04 at (   2,   1,   1)
       Min divergence: -0.16E-03 at (   1,   1,  23)
       Max div. error:  0.20E-03 at (   1,   1,  40)
       Max VN number:   0.36E-01 at (  75,   1,  22)
 
       Time Step     600   October 28, 2020  15:47:09
       Step Size:    0.627E-03 s, Total Time:       0.63 s
       Pressure Iterations:      1
       Maximum Velocity Error:  0.56E-16 on Mesh   1 at (  76   1   3)
       Maximum Pressure Error:  0.57E+06 on Mesh   1 at (  21   1  25)
       ScaRC: iterations   132, residual  0.73E-08, convergence rate   0.78E+00
       ---------------------------------------------------------------
       Mesh    1
       Max CFL number:  0.32E+00 at (  20,   1,  25)
       Max divergence:  0.87E-12 at (  23,   1,  24)
       Min divergence: -0.28E-03 at (  75,   1,  20)
       Max div. error:  0.28E-03 at (  75,   1,  20)
       Max VN number:   0.36E-01 at (  71,   1,  25)
       Mesh    2
       Max CFL number:  0.50E+00 at (  25,   1,  14)
       Max divergence:  0.41E-03 at (  27,   1,  26)
       Min divergence: -0.27E-03 at (   1,   1,  20)
       Max div. error:  0.28E-03 at (   1,   1,  20)
       Max VN number:   0.36E-01 at (  65,   1,  33)
       Mesh    3
       Max CFL number:  0.20E+00 at (   1,   1,   7)
       Max divergence:  0.89E-04 at (  16,   1,  21)
       Min divergence: -0.10E-03 at (   1,   1,  18)
       Max div. error:  0.83E-04 at (   1,   1,  40)
       Max VN number:   0.36E-01 at (   7,   1,  31)
       Mesh    4
       Max CFL number:  0.18E+00 at (  16,   1,  22)
       Max divergence:  0.51E-04 at (  16,   1,   6)
       Min divergence: -0.29E-04 at (  10,   1,  20)
       Max div. error:  0.18E-04 at (   1,   1,   2)
       Max VN number:   0.36E-01 at (  68,   1,  16)
 
       Time Step     700   October 28, 2020  15:49:55
       Step Size:    0.564E-03 s, Total Time:       0.69 s
       Pressure Iterations:      1
       Maximum Velocity Error:  0.56E-16 on Mesh   1 at (  76   1   1)
       Maximum Pressure Error:  0.57E+06 on Mesh   1 at (  21   1  25)
       ScaRC: iterations   128, residual  0.81E-08, convergence rate   0.78E+00
       ---------------------------------------------------------------
       Mesh    1
       Max CFL number:  0.31E+00 at (  20,   1,  25)
       Max divergence:  0.32E-05 at (  75,   1,  39)
       Min divergence: -0.16E-04 at (  75,   1,  20)
       Max div. error:  0.16E-04 at (  75,   1,  20)
       Max VN number:   0.33E-01 at (  75,   1,  25)
       Mesh    2
       Max CFL number:  0.48E+00 at (  25,   1,  14)
       Max divergence:  0.21E-03 at (  27,   1,  15)
       Min divergence: -0.59E-04 at (  28,   1,  27)
       Max div. error:  0.16E-04 at (   1,   1,  20)
       Max VN number:   0.33E-01 at (  63,   1,   7)
       Mesh    3
       Max CFL number:  0.20E+00 at (   1,   1,   7)
       Max divergence:  0.62E-04 at (  33,   1,  21)
       Min divergence: -0.58E-04 at (  46,   1,  21)
       Max div. error:  0.17E-04 at (  75,   1,  40)
       Max VN number:   0.33E-01 at (   6,   1,  29)
       Mesh    4
       Max CFL number:  0.17E+00 at (  32,   1,  23)
       Max divergence:  0.45E-04 at (  37,   1,   6)
       Min divergence: -0.34E-04 at (   1,   1,  40)
       Max div. error:  0.17E-04 at (   1,   1,  40)
       Max VN number:   0.33E-01 at (   9,   1,  21)
 
       Time Step     800   October 28, 2020  15:52:41
       Step Size:    0.507E-03 s, Total Time:       0.75 s
       Pressure Iterations:      1
       Maximum Velocity Error:  0.56E-16 on Mesh   1 at (  76   1   3)
       Maximum Pressure Error:  0.58E+06 on Mesh   1 at (  21   1  25)
       ScaRC: iterations   132, residual  0.81E-08, convergence rate   0.78E+00
       ---------------------------------------------------------------
       Mesh    1
       Max CFL number:  0.30E+00 at (  20,   1,  25)
       Max divergence:  0.18E-03 at (  75,   1,  38)
       Min divergence: -0.14E-11 at (  20,   1,  25)
       Max div. error:  0.17E-03 at (  75,   1,  40)
       Max VN number:   0.29E-01 at (  75,   1,  25)
       Mesh    2
       Max CFL number:  0.45E+00 at (  25,   1,  14)
       Max divergence:  0.15E-03 at (   1,   1,  38)
       Min divergence: -0.54E-04 at (   2,   1,   1)
       Max div. error:  0.17E-03 at (   1,   1,  40)
       Max VN number:   0.29E-01 at (   1,   1,  25)
       Mesh    3
       Max CFL number:  0.22E+00 at (   1,   1,  13)
       Max divergence:  0.12E-03 at (   1,   1,  32)
       Min divergence: -0.45E-04 at (  64,   1,  21)
       Max div. error:  0.12E-03 at (   1,   1,  23)
       Max VN number:   0.29E-01 at (  23,   1,  28)
       Mesh    4
       Max CFL number:  0.16E+00 at (   1,   1,  14)
       Max divergence:  0.38E-04 at (  54,   1,   6)
       Min divergence: -0.26E-04 at (  44,   1,  21)
       Max div. error:  0.54E-05 at (   1,   1,   1)
       Max VN number:   0.29E-01 at (  25,   1,  21)
 
       Time Step     900   October 28, 2020  15:55:25
       Step Size:    0.507E-03 s, Total Time:       0.80 s
       Pressure Iterations:      1
       Maximum Velocity Error:  0.56E-16 on Mesh   1 at (  76   1   5)
       Maximum Pressure Error:  0.58E+06 on Mesh   1 at (  21   1  25)
       ScaRC: iterations   129, residual  0.95E-08, convergence rate   0.78E+00
       ---------------------------------------------------------------
       Mesh    1
       Max CFL number:  0.31E+00 at (  20,   1,  25)
       Max divergence:  0.56E-04 at (  75,   1,  39)
       Min divergence: -0.11E-11 at (  21,   1,  24)
       Max div. error:  0.55E-04 at (  75,   1,  40)
       Max VN number:   0.29E-01 at (  75,   1,  25)
       Mesh    2
       Max CFL number:  0.47E+00 at (  25,   1,  14)
       Max divergence:  0.14E-03 at (  75,   1,  19)
       Min divergence: -0.27E-04 at (  58,   1,  20)
       Max div. error:  0.13E-03 at (  75,   1,  23)
       Max VN number:   0.29E-01 at (  15,   1,  25)
       Mesh    3
       Max CFL number:  0.27E+00 at (   1,   1,  12)
       Max divergence:  0.15E-03 at (   1,   1,  19)
       Min divergence: -0.35E-04 at (   4,   1,  20)
       Max div. error:  0.13E-03 at (   1,   1,  23)
       Max VN number:   0.29E-01 at (  40,   1,  28)
       Mesh    4
       Max CFL number:  0.17E+00 at (   1,   1,  15)
       Max divergence:  0.11E-03 at (   1,   1,  27)
       Min divergence: -0.11E-03 at (  75,   1,  17)
       Max div. error:  0.83E-04 at (   1,   1,   1)
       Max VN number:   0.29E-01 at (  42,   1,  21)
 
       Time Step    1000   October 28, 2020  15:58:09
       Step Size:    0.507E-03 s, Total Time:       0.85 s
       Pressure Iterations:      1
       Maximum Velocity Error:  0.56E-16 on Mesh   1 at (  76   1   3)
       Maximum Pressure Error:  0.58E+06 on Mesh   1 at (  21   1  25)
       ScaRC: iterations   129, residual  0.77E-08, convergence rate   0.78E+00
       ---------------------------------------------------------------
       Mesh    1
       Max CFL number:  0.33E+00 at (  20,   1,  25)
       Max divergence:  0.10E-11 at (  16,   1,  25)
       Min divergence: -0.82E-04 at (  75,   1,  23)
       Max div. error:  0.75E-04 at (  75,   1,  21)
       Max VN number:   0.29E-01 at (  70,   1,  33)
       Mesh    2
       Max CFL number:  0.49E+00 at (  25,   1,  14)
       Max divergence:  0.39E-04 at (  27,   1,  15)
       Min divergence: -0.70E-04 at (   1,   1,  20)
       Max div. error:  0.75E-04 at (   1,   1,  21)
       Max VN number:   0.29E-01 at (  12,   1,  25)
       Mesh    3
       Max CFL number:  0.33E+00 at (   1,   1,  11)
       Max divergence:  0.25E-04 at (   1,   1,  18)
       Min divergence: -0.41E-04 at (   2,   1,  22)
       Max div. error:  0.21E-04 at (   1,   1,  40)
       Max VN number:   0.29E-01 at (  57,   1,  28)
       Mesh    4
       Max CFL number:  0.18E+00 at (   1,   1,  14)
       Max divergence:  0.34E-04 at (  11,   1,  21)
       Min divergence: -0.31E-04 at (  23,   1,  21)
       Max div. error:  0.11E-04 at (   1,   1,  40)
       Max VN number:   0.29E-01 at (  59,   1,  21)
 
       Time Step    1100   October 28, 2020  16:00:53
       Step Size:    0.457E-03 s, Total Time:       0.89 s
       Pressure Iterations:      1
       Maximum Velocity Error:  0.11E-15 on Mesh   2 at (  76   1   4)
       Maximum Pressure Error:  0.59E+06 on Mesh   1 at (  21   1  25)
       ScaRC: iterations   132, residual  0.92E-08, convergence rate   0.78E+00
       ---------------------------------------------------------------
       Mesh    1
       Max CFL number:  0.31E+00 at (  20,   1,  25)
       Max divergence:  0.79E-12 at (  16,   1,  25)
       Min divergence: -0.15E-03 at (  75,   1,  21)
       Max div. error:  0.14E-03 at (  75,   1,  20)
       Max VN number:   0.27E-01 at (  70,   1,  33)
       Mesh    2
       Max CFL number:  0.46E+00 at (  25,   1,  14)
       Max divergence:  0.79E-04 at (  27,   1,  15)
       Min divergence: -0.14E-03 at (   1,   1,  20)
       Max div. error:  0.14E-03 at (   1,   1,  20)
       Max VN number:   0.27E-01 at (   8,   1,  25)
       Mesh    3
       Max CFL number:  0.35E+00 at (   1,   1,  10)
       Max divergence:  0.17E-04 at (   2,   1,  40)
       Min divergence: -0.93E-04 at (   1,   1,  19)
       Max div. error:  0.86E-04 at (   1,   1,   1)
       Max VN number:   0.27E-01 at (  74,   1,  28)
       Mesh    4
       Max CFL number:  0.17E+00 at (   1,   1,  27)
       Max divergence:  0.30E-04 at (  41,   1,  28)
       Min divergence: -0.48E-04 at (   1,   1,  26)
       Max div. error:  0.41E-04 at (   1,   1,   1)
       Max VN number:   0.27E-01 at (  75,   1,  21)
 
       Time Step    1200   October 28, 2020  16:03:35
       Step Size:    0.457E-03 s, Total Time:       0.94 s
       Pressure Iterations:      1
       Maximum Velocity Error:  0.11E-15 on Mesh   2 at (  76   1   1)
       Maximum Pressure Error:  0.59E+06 on Mesh   1 at (  21   1  25)
       ScaRC: iterations   129, residual  0.91E-08, convergence rate   0.78E+00
       ---------------------------------------------------------------
       Mesh    1
       Max CFL number:  0.32E+00 at (  20,   1,  25)
       Max divergence:  0.13E-08 at (  73,   1,  25)
       Min divergence: -0.75E-04 at (  75,   1,  19)
       Max div. error:  0.76E-04 at (  75,   1,  19)
       Max VN number:   0.27E-01 at (  74,   1,  25)
       Mesh    2
       Max CFL number:  0.47E+00 at (  25,   1,  14)
       Max divergence:  0.88E-04 at (  27,   1,  15)
       Min divergence: -0.73E-04 at (   1,   1,  19)
       Max div. error:  0.76E-04 at (   1,   1,  19)
       Max VN number:   0.27E-01 at (   5,   1,  25)
       Mesh    3
       Max CFL number:  0.36E+00 at (   1,   1,  32)
       Max divergence:  0.16E-04 at (   2,   1,  17)
       Min divergence: -0.46E-04 at (   1,   1,  16)
       Max div. error:  0.19E-04 at (  75,   1,   1)
       Max VN number:   0.27E-01 at (  72,   1,  29)
       Mesh    4
       Max CFL number:  0.17E+00 at (   1,   1,  15)
       Max divergence:  0.28E-04 at (  58,   1,  13)
       Min divergence: -0.22E-04 at (   1,   1,  30)
       Max div. error:  0.19E-04 at (   1,   1,   1)
       Max VN number:   0.27E-01 at (  15,   1,  28)
 
       Time Step    1300   October 28, 2020  16:06:18
       Step Size:    0.457E-03 s, Total Time:       0.99 s
       Pressure Iterations:      1
       Maximum Velocity Error:  0.11E-15 on Mesh   2 at (  76   1   4)
       Maximum Pressure Error:  0.59E+06 on Mesh   1 at (  21   1  25)
       ScaRC: iterations   129, residual  0.93E-08, convergence rate   0.78E+00
       ---------------------------------------------------------------
       Mesh    1
       Max CFL number:  0.32E+00 at (  20,   1,  25)
       Max divergence:  0.73E-04 at (  75,   1,   2)
       Min divergence: -0.97E-12 at (  20,   1,  25)
       Max div. error:  0.68E-04 at (  75,   1,   1)
       Max VN number:   0.27E-01 at (  75,   1,  25)
       Mesh    2
       Max CFL number:  0.49E+00 at (  25,   1,  27)
       Max divergence:  0.79E-04 at (  75,   1,  27)
       Min divergence: -0.27E-04 at (  28,   1,  14)
       Max div. error:  0.68E-04 at (   1,   1,   1)
       Max VN number:   0.27E-01 at (   2,   1,  25)
       Mesh    3
       Max CFL number:  0.40E+00 at (   7,   1,  32)
       Max divergence:  0.75E-04 at (   1,   1,  16)
       Min divergence: -0.26E-04 at (   5,   1,  13)
       Max div. error:  0.65E-04 at (   1,   1,   1)
       Max VN number:   0.27E-01 at (  26,   1,   7)
       Mesh    4
       Max CFL number:  0.18E+00 at (   1,   1,  15)
       Max divergence:  0.49E-04 at (  74,   1,  26)
       Min divergence: -0.71E-04 at (  75,   1,  21)
       Max div. error:  0.27E-04 at (   1,   1,   1)
       Max VN number:   0.27E-01 at (  32,   1,  28)
 
       Time Step    1400   October 28, 2020  16:09:02
       Step Size:    0.411E-03 s, Total Time:       1.03 s
       Pressure Iterations:      1
       Maximum Velocity Error:  0.11E-15 on Mesh   2 at (  76   1   3)
       Maximum Pressure Error:  0.60E+06 on Mesh   1 at (  21   1  25)
       ScaRC: iterations   133, residual  0.80E-08, convergence rate   0.78E+00
       ---------------------------------------------------------------
       Mesh    1
       Max CFL number:  0.30E+00 at (  20,   1,  25)
       Max divergence:  0.80E-04 at (  75,   1,   2)
       Min divergence: -0.89E-12 at (  21,   1,  26)
       Max div. error:  0.78E-04 at (  75,   1,   1)
       Max VN number:   0.24E-01 at (  75,   1,  25)
       Mesh    2
       Max CFL number:  0.46E+00 at (  25,   1,  14)
       Max divergence:  0.13E-03 at (  75,   1,  30)
       Min divergence: -0.31E-04 at (  71,   1,  27)
       Max div. error:  0.10E-03 at (  75,   1,   1)
       Max VN number:   0.24E-01 at (  15,   1,  25)
       Mesh    3
       Max CFL number:  0.41E+00 at (   2,   1,   9)
       Max divergence:  0.12E-03 at (   1,   1,  30)
       Min divergence: -0.19E-04 at (   4,   1,  33)
       Max div. error:  0.10E-03 at (   1,   1,   1)
       Max VN number:   0.24E-01 at (  20,   1,   6)
       Mesh    4
       Max CFL number:  0.17E+00 at (   1,   1,  32)
       Max divergence:  0.60E-04 at (  75,   1,  21)
       Min divergence: -0.24E-04 at (  74,   1,  25)
       Max div. error:  0.60E-04 at (   1,   1,   1)
       Max VN number:   0.24E-01 at (  50,   1,  29)
 
       Time Step    1500   October 28, 2020  16:11:43
       Step Size:    0.411E-03 s, Total Time:       1.07 s
       Pressure Iterations:      1
       Maximum Velocity Error:  0.11E-15 on Mesh   2 at (  76   1   3)
       Maximum Pressure Error:  0.60E+06 on Mesh   1 at (  21   1  25)
       ScaRC: iterations   129, residual  0.94E-08, convergence rate   0.78E+00
       ---------------------------------------------------------------
       Mesh    1
       Max CFL number:  0.31E+00 at (  20,   1,  25)
       Max divergence:  0.39E-04 at (  75,   1,  39)
       Min divergence: -0.95E-08 at (  73,   1,  25)
       Max div. error:  0.40E-04 at (  75,   1,  40)
       Max VN number:   0.24E-01 at (  75,   1,  40)
       Mesh    2
       Max CFL number:  0.47E+00 at (  25,   1,  14)
       Max divergence:  0.52E-04 at (  27,   1,  15)
       Min divergence: -0.30E-04 at (  61,   1,  11)
       Max div. error:  0.40E-04 at (   1,   1,  40)
       Max VN number:   0.24E-01 at (  11,   1,  25)
       Mesh    3
       Max CFL number:  0.43E+00 at (  12,   1,   8)
       Max divergence:  0.56E-04 at (   1,   1,  23)
       Min divergence: -0.14E-04 at (   6,   1,   7)
       Max div. error:  0.33E-04 at (   1,   1,  40)
       Max VN number:   0.24E-01 at (  19,   1,   7)
       Mesh    4
       Max CFL number:  0.18E+00 at (   2,   1,  32)
       Max divergence:  0.23E-04 at (   1,   1,  27)
       Min divergence: -0.41E-05 at (  65,   1,  25)
       Max div. error:  0.24E-04 at (   1,   1,  40)
       Max VN number:   0.24E-01 at (  66,   1,  29)
 
       Time Step    1600   October 28, 2020  16:14:26
       Step Size:    0.411E-03 s, Total Time:       1.11 s
       Pressure Iterations:      1
       Maximum Velocity Error:  0.11E-15 on Mesh   2 at (  76   1  31)
       Maximum Pressure Error:  0.61E+06 on Mesh   1 at (  21   1  25)
       ScaRC: iterations   134, residual  0.83E-08, convergence rate   0.78E+00
       ---------------------------------------------------------------
       Mesh    1
       Max CFL number:  0.31E+00 at (  20,   1,  25)
       Max divergence:  0.83E-12 at (  23,   1,  17)
       Min divergence: -0.99E-04 at (  75,   1,  26)
       Max div. error:  0.93E-04 at (  75,   1,  30)
       Max VN number:   0.24E-01 at (  70,   1,  33)
       Mesh    2
       Max CFL number:  0.49E+00 at (  25,   1,  27)
       Max divergence:  0.42E-04 at (  53,   1,  30)
       Min divergence: -0.91E-04 at (   1,   1,  28)
       Max div. error:  0.93E-04 at (   1,   1,  30)
       Max VN number:   0.24E-01 at (  70,   1,   7)
       Mesh    3
       Max CFL number:  0.48E+00 at (  26,   1,   4)
       Max divergence:  0.25E-04 at (   2,   1,   1)
       Min divergence: -0.76E-04 at (   1,   1,  34)
       Max div. error:  0.72E-04 at (   1,   1,  40)
       Max VN number:   0.24E-01 at (   4,   1,  12)
       Mesh    4
       Max CFL number:  0.21E+00 at (   1,   1,   7)
       Max divergence:  0.15E-04 at (   2,   1,  40)
       Min divergence: -0.59E-04 at (   1,   1,  16)
       Max div. error:  0.63E-04 at (   1,   1,  40)
       Max VN number:   0.24E-01 at (  12,   1,  17)
 
       Time Step    1700   October 28, 2020  16:17:09
       Step Size:    0.370E-03 s, Total Time:       1.15 s
       Pressure Iterations:      1
       Maximum Velocity Error:  0.11E-15 on Mesh   2 at (  76   1   3)
       Maximum Pressure Error:  0.64E+06 on Mesh   1 at (  21   1  25)
       ScaRC: iterations   134, residual  0.76E-08, convergence rate   0.78E+00
       ---------------------------------------------------------------
       Mesh    1
       Max CFL number:  0.29E+00 at (  20,   1,  25)
       Max divergence:  0.74E-12 at (  12,   1,  24)
       Min divergence: -0.90E-03 at (  75,   1,  15)
       Max div. error:  0.87E-03 at (  75,   1,  15)
       Max VN number:   0.21E-01 at (  70,   1,  33)
       Mesh    2
       Max CFL number:  0.48E+00 at (  25,   1,  14)
       Max divergence:  0.18E-03 at (   2,   1,   1)
       Min divergence: -0.81E-03 at (   1,   1,  15)
       Max div. error:  0.87E-03 at (   1,   1,  15)
       Max VN number:   0.21E-01 at (   5,   1,  25)
       Mesh    3
       Max CFL number:  0.45E+00 at (  19,   1,  38)
       Max divergence:  0.21E-03 at (  75,   1,   9)
       Min divergence: -0.72E-04 at (   2,   1,   1)
       Max div. error:  0.20E-03 at (  75,   1,  40)
       Max VN number:   0.21E-01 at (   2,   1,  29)
       Mesh    4
       Max CFL number:  0.28E+00 at (   1,   1,  37)
       Max divergence:  0.18E-03 at (   1,   1,   3)
       Min divergence: -0.71E-04 at (   2,   1,  40)
       Max div. error:  0.20E-03 at (   1,   1,  40)
       Max VN number:   0.21E-01 at (   1,   1,  21)
 
       Time Step    1800   October 28, 2020  16:19:51
       Step Size:    0.370E-03 s, Total Time:       1.19 s
       Pressure Iterations:      1
       Maximum Velocity Error:  0.11E-15 on Mesh   2 at (  76   1   3)
       Maximum Pressure Error:  0.66E+06 on Mesh   1 at (  21   1  25)
       ScaRC: iterations   135, residual  0.75E-08, convergence rate   0.78E+00
       ---------------------------------------------------------------
       Mesh    1
       Max CFL number:  0.29E+00 at (  20,   1,  25)
       Max divergence:  0.22E-03 at (  75,   1,  39)
       Min divergence: -0.83E-12 at (  20,   1,  25)
       Max div. error:  0.23E-03 at (  75,   1,   1)
       Max VN number:   0.21E-01 at (  75,   1,  25)
       Mesh    2
       Max CFL number:  0.50E+00 at (  25,   1,  27)
       Max divergence:  0.18E-03 at (   1,   1,   2)
       Min divergence: -0.81E-03 at (  75,   1,   8)
       Max div. error:  0.78E-03 at (  75,   1,   1)
       Max VN number:   0.21E-01 at (   6,   1,  25)
       Mesh    3
       Max CFL number:  0.45E+00 at (   1,   1,   6)
       Max divergence:  0.16E-03 at (   2,   1,   1)
       Min divergence: -0.20E-02 at (  75,   1,  38)
       Max div. error:  0.19E-02 at (  75,   1,  40)
       Max VN number:   0.21E-01 at (   2,   1,  23)
       Mesh    4
       Max CFL number:  0.35E+00 at (   2,   1,  39)
       Max divergence:  0.13E-03 at (   2,   1,  40)
       Min divergence: -0.20E-02 at (   1,   1,  26)
       Max div. error:  0.19E-02 at (   1,   1,  40)
       Max VN number:   0.21E-01 at (   2,   1,  20)
 
       Time Step    1900   October 28, 2020  16:22:34
       Step Size:    0.332E-03 s, Total Time:       1.22 s
       Pressure Iterations:      1
       Maximum Velocity Error:  0.22E-15 on Mesh   3 at (  76   1   1)
       Maximum Pressure Error:  0.70E+06 on Mesh   1 at (  21   1  25)
       ScaRC: iterations   137, residual  0.82E-08, convergence rate   0.79E+00
       ---------------------------------------------------------------
       Mesh    1
       Max CFL number:  0.26E+00 at (  20,   1,  25)
       Max divergence:  0.85E-03 at (  75,   1,   3)
       Min divergence: -0.90E-12 at (  22,   1,  25)
       Max div. error:  0.72E-03 at (  75,   1,   1)
       Max VN number:   0.19E-01 at (  75,   1,  25)
       Mesh    2
       Max CFL number:  0.44E+00 at (  25,   1,  14)
       Max divergence:  0.19E-02 at (  75,   1,  13)
       Min divergence: -0.67E-03 at (   2,   1,   1)
       Max div. error:  0.18E-02 at (  75,   1,   1)
       Max VN number:   0.19E-01 at (   2,   1,  25)
       Mesh    3
       Max CFL number:  0.40E+00 at (  14,   1,   8)
       Max divergence:  0.17E-02 at (   1,   1,   3)
       Min divergence: -0.32E-03 at (   4,   1,   1)
       Max div. error:  0.18E-02 at (   1,   1,   1)
       Max VN number:   0.19E-01 at (   1,   1,  18)
       Mesh    4
       Max CFL number:  0.39E+00 at (   3,   1,   2)
       Max divergence:  0.13E-02 at (   1,   1,   3)
       Min divergence: -0.19E-03 at (   9,   1,  40)
       Max div. error:  0.13E-02 at (   1,   1,   1)
       Max VN number:   0.19E-01 at (   1,   1,  15)
 
       Time Step    2000   October 28, 2020  16:25:16
       Step Size:    0.297E-03 s, Total Time:       1.25 s
       Pressure Iterations:      1
       Maximum Velocity Error:  0.11E-15 on Mesh   2 at (  76   1  34)
       Maximum Pressure Error:  0.86E+06 on Mesh   1 at (  21   1  25)
       ScaRC: iterations   139, residual  0.84E-08, convergence rate   0.79E+00
       ---------------------------------------------------------------
       Mesh    1
       Max CFL number:  0.24E+00 at (  20,   1,  25)
       Max divergence:  0.64E-02 at (  75,   1,  22)
       Min divergence: -0.83E-12 at (  20,   1,  25)
       Max div. error:  0.62E-02 at (  75,   1,  24)
       Max VN number:   0.17E-01 at (  75,   1,  25)
       Mesh    2
       Max CFL number:  0.49E+00 at (  25,   1,  14)
       Max divergence:  0.58E-02 at (   1,   1,  21)
       Min divergence: -0.10E-02 at (   2,   1,  40)
       Max div. error:  0.62E-02 at (   1,   1,  24)
       Max VN number:   0.17E-01 at (   1,   1,  25)
       Mesh    3
       Max CFL number:  0.36E+00 at (  40,   1,   8)
       Max divergence:  0.46E-02 at (   1,   1,  35)
       Min divergence: -0.52E-03 at (   2,   1,   1)
       Max div. error:  0.47E-02 at (   1,   1,  40)
       Max VN number:   0.17E-01 at (   1,   1,   5)
       Mesh    4
       Max CFL number:  0.36E+00 at (  21,   1,   1)
       Max divergence:  0.35E-02 at (   1,   1,  37)
       Min divergence: -0.54E-03 at (   2,   1,   1)
       Max div. error:  0.37E-02 at (   1,   1,   1)
       Max VN number:   0.17E-01 at (   1,   1,  26)
 
