
 Fire Dynamics Simulator

 Current Date     : October 28, 2020  16:38:06
 Revision         : -dirty-master
 Revision Date    : Wed Oct 28 15:04:48 2020 +0100
 Compiler         : Intel ifort 18.0.1
 Compilation Date : Oct 28, 2020 15:16:47

 MPI Enabled;    Number of MPI Processes:       8
 OpenMP Enabled; Number of OpenMP Threads:      2

 MPI version: 3.1
 MPI library version: Intel(R) MPI Library 2018 Update 1 for Linux* OS


 Job TITLE        : Flow through a duct
 Job ID string    : duct_flow


 Grid Dimensions, Mesh     1

   Cells in the X Direction            16
   Cells in the Y Direction            16
   Cells in the Z Direction            16
   Number of Grid Cells              4096


 Physical Dimensions, Mesh     1

   Length (m)                       3.200
   Width  (m)                       3.200
   Height (m)                       3.200
   Initial Time Step (s)            0.125

 Grid Dimensions, Mesh     2

   Cells in the X Direction            16
   Cells in the Y Direction            16
   Cells in the Z Direction            16
   Number of Grid Cells              4096


 Physical Dimensions, Mesh     2

   Length (m)                       3.200
   Width  (m)                       3.200
   Height (m)                       3.200
   Initial Time Step (s)            0.125

 Grid Dimensions, Mesh     3

   Cells in the X Direction            16
   Cells in the Y Direction            16
   Cells in the Z Direction            16
   Number of Grid Cells              4096


 Physical Dimensions, Mesh     3

   Length (m)                       3.200
   Width  (m)                       3.200
   Height (m)                       3.200
   Initial Time Step (s)            0.125

 Grid Dimensions, Mesh     4

   Cells in the X Direction            16
   Cells in the Y Direction            16
   Cells in the Z Direction            16
   Number of Grid Cells              4096


 Physical Dimensions, Mesh     4

   Length (m)                       3.200
   Width  (m)                       3.200
   Height (m)                       3.200
   Initial Time Step (s)            0.125

 Grid Dimensions, Mesh     5

   Cells in the X Direction            16
   Cells in the Y Direction            16
   Cells in the Z Direction            16
   Number of Grid Cells              4096


 Physical Dimensions, Mesh     5

   Length (m)                       3.200
   Width  (m)                       3.200
   Height (m)                       3.200
   Initial Time Step (s)            0.125

 Grid Dimensions, Mesh     6

   Cells in the X Direction            16
   Cells in the Y Direction            16
   Cells in the Z Direction            16
   Number of Grid Cells              4096


 Physical Dimensions, Mesh     6

   Length (m)                       3.200
   Width  (m)                       3.200
   Height (m)                       3.200
   Initial Time Step (s)            0.125

 Grid Dimensions, Mesh     7

   Cells in the X Direction            16
   Cells in the Y Direction            16
   Cells in the Z Direction            16
   Number of Grid Cells              4096


 Physical Dimensions, Mesh     7

   Length (m)                       3.200
   Width  (m)                       3.200
   Height (m)                       3.200
   Initial Time Step (s)            0.125

 Grid Dimensions, Mesh     8

   Cells in the X Direction            16
   Cells in the Y Direction            16
   Cells in the Z Direction            16
   Number of Grid Cells              4096


 Physical Dimensions, Mesh     8

   Length (m)                       3.200
   Width  (m)                       3.200
   Height (m)                       3.200
   Initial Time Step (s)            0.125

Total Number of Grid Cells         32768


 Miscellaneous Parameters

   Simulation Start Time (s)          0.0
   Simulation End Time (s)           60.0
   LES Calculation
   Eddy Viscosity:           Deardorff Model (C_DEARDORFF = 0.10)
   Near-wall Eddy Viscosity: Smagorinsky with Van Driest damping (C_SMAGORINSKY = 0.20)
   Turbulent Prandtl Number:         0.50
   Turbulent Schmidt Number:         0.50
   Ambient Temperature (C):         20.00


 Mass Fraction Transformation Matrix to Convert Species Mixtures (Columns) to Primitive Species (Rows)

                         AIR     
   NITROGEN              0.762470
   OXYGEN                0.230997
   CARBON DIOXIDE        0.000591
   WATER VAPOR           0.005941


 Primitive Species Information

   NITROGEN
   Gas Species
   Molecular Weight (g/mol)            28.01340
   Ambient Density (kg/m^3)            1.165
   Enthalpy of Formation (J/kg)        0.00E+00

   OXYGEN
   Gas Species
   Molecular Weight (g/mol)            31.99880
   Ambient Density (kg/m^3)            1.330
   Enthalpy of Formation (J/kg)        0.00E+00

   CARBON DIOXIDE
   Gas Species
   Molecular Weight (g/mol)            44.00950
   Ambient Density (kg/m^3)            1.830
   Enthalpy of Formation (J/kg)       -8.94E+06

   WATER VAPOR
   Gas Species
   Molecular Weight (g/mol)            18.01528
   Ambient Density (kg/m^3)            0.749
   Enthalpy of Formation (J/kg)       -1.34E+07


 Tracked (Lumped) Species Information

   AIR
   Molecular Weight (g/mol)            28.75199
   Ambient Density (kg/m^3)            1.195
   Initial Mass Fraction               1.000
   Enthalpy of Formation (J/kg)     -8.50E+04

   Sub Species                    Mass Fraction     Mole Fraction
   NITROGEN                       7.624701E-01      7.825730E-01
   OXYGEN                         2.309974E-01      2.075589E-01
   CARBON DIOXIDE                 5.914651E-04      3.864120E-04
   WATER VAPOR                    5.940984E-03      9.481679E-03
 
     Viscosity (kg/m/s) Ambient,  293 K:  1.80E-05
                                  500 K:  2.61E-05
                                 1000 K:  4.13E-05
                                 1500 K:  5.37E-05
   Therm. Cond. (W/m/K) Ambient,  293 K:  2.56E-02
                                  500 K:  3.81E-02
                                 1000 K:  6.69E-02
                                 1500 K:  9.25E-02
        Enthalpy (J/kg) Ambient,  293 K: -9.01E+04
                                  500 K:  1.22E+05
                                 1000 K:  6.72E+05
                                 1500 K:  1.27E+06
    Spec. Heat (J/kg/K) Ambient,  293 K:  1.02E+03
                                  500 K:  1.04E+03
                                 1000 K:  1.16E+03
                                 1500 K:  1.23E+03
   Diff. Coeff. (m^2/s) Ambient,  293 K:  1.99E-05
                                  500 K:  4.96E-05
                                 1000 K:  1.58E-04
                                 1500 K:  3.09E-04


 Material Information


 Surface Conditions

   0 INERT (DEFAULT)

   1 DUCT

   2 OPEN
     Passive Vent to Atmosphere

   3 MIRROR
     Symmetry Plane

   4 INTERPOLATED

   5 PERIODIC

   6 HVAC

   7 MASSLESS TRACER

   8 DROPLET

   9 EVACUATION_OUTFLOW
     Normal Velocity (m/s)         0.000

  10 MASSLESS TARGET

  11 PERIODIC FLOW ONLY


 Cut-off Density and Temperature

    Minimum Temperature:   -10.0 C
    Maximum Temperature:  2726.8 C
    Minimum Density:  1.195E-01 kg/m3
    Maximum Density:  2.663E+00 kg/m3


 Device Coordinates

     1 Coords:      1.000000      1.500000      1.500000, Make: null, ID: flow_in, Quantity: VOLUME FLOW +
     2 Coords:      1.000000      1.500000      4.500000, Make: null, ID: flow_out, Quantity: VOLUME FLOW -
     3 Coords:      0.000000      0.000000      0.000000, Make: null, ID: error, Quantity: MAXIMUM VELOCITY ERROR
     4 Coords:      0.000000      0.000000      0.000000, Make: null, ID: iter, Quantity: PRESSURE ITERATIONS
     5 Coords:      0.000000      0.000000      0.000000, Make: null, ID: cpu, Quantity: CPU TIME


 Slice File Information, Mesh     1

   Sampling Interval (s)             0.060

   1 Nodes:   0  16   9   9   0  16, Quantity: VELOCITY
   2 Nodes:   0  16   9   9   0  16, Quantity: U-VELOCITY
   3 Nodes:   0  16   9   9   0  16, Quantity: V-VELOCITY
   4 Nodes:   0  16   9   9   0  16, Quantity: W-VELOCITY
   5 Nodes:   0  16   9   9   0  16, Quantity: H
   6 Nodes:   0  16   0  16   9   9, Quantity: VELOCITY
   7 Nodes:   0  16   0  16   9   9, Quantity: U-VELOCITY
   8 Nodes:   0  16   0  16   9   9, Quantity: V-VELOCITY
   9 Nodes:   0  16   0  16   9   9, Quantity: W-VELOCITY
  10 Nodes:   0  16   0  16   9   9, Quantity: H


 Boundary File Information

   Sampling Interval (s)             0.120

   1 Quantity: VELOCITY ERROR
 
 

 Run Time Diagnostics

       Time Step       1   October 28, 2020  16:38:07
       Step Size:    0.125E+00 s, Total Time:       0.12 s
       Pressure Iterations:      3
       Maximum Velocity Error:  0.98E-03 on Mesh   1 at (  17  10   7)
       Maximum Pressure Error:  0.18E-14 on Mesh   4 at (   2   8   7)
       ---------------------------------------------------------------
       Mesh    1
       Max CFL number:  0.11E-01 at (  10,  11,   6)
       Max divergence:  0.51E-16 at (  11,   7,  11)
       Min divergence: -0.54E-16 at (   8,   7,  10)
       Max VN number:   0.94E-02 at (   4,   6,   5)
       Mesh    2
       Max CFL number:  0.11E-01 at (  15,  15,  15)
       Max divergence:  0.11E-15 at (   4,   7,   7)
       Min divergence: -0.10E-15 at (   8,   7,  11)
       Max VN number:   0.76E-02 at (  10,   3,   7)
       Mesh    3
       Max CFL number:  0.11E-01 at (  10,   8,  13)
       Max divergence:  0.91E-16 at (  12,   8,  13)
       Min divergence: -0.10E-15 at (  11,   8,  13)
       Max VN number:   0.87E-02 at (   4,   6,  11)
       Mesh    4
       Max CFL number:  0.11E-01 at (  15,  14,   3)
       Max divergence:  0.13E-15 at (   2,   8,   6)
       Min divergence: -0.16E-15 at (   2,   8,   7)
       Max VN number:   0.77E-02 at (   6,  15,   7)
       Mesh    5
       Max CFL number:  0.11E-01 at (  15,   5,   7)
       Max divergence:  0.72E-16 at (  10,   7,   8)
       Min divergence: -0.73E-16 at (   7,   7,   8)
       Max VN number:   0.82E-02 at (   4,  10,  10)
       Mesh    6
       Max CFL number:  0.11E-01 at (   8,   6,  12)
       Max divergence:  0.12E-15 at (   4,   7,   8)
       Min divergence: -0.85E-16 at (   4,   6,   8)
       Max VN number:   0.89E-02 at (   9,   5,  13)
       Mesh    7
       Max CFL number:  0.11E-01 at (  11,   8,   4)
       Max divergence:  0.98E-16 at (   7,   8,   8)
       Min divergence: -0.94E-16 at (   6,   8,   8)
       Max VN number:   0.85E-02 at (   8,   5,  14)
       Mesh    8
       Max CFL number:  0.11E-01 at (   2,  12,  13)
       Max divergence:  0.95E-16 at (   8,   3,  11)
       Min divergence: -0.99E-16 at (   8,   3,  10)
       Max VN number:   0.82E-02 at (   2,  15,   7)
 
       Time Step       2   October 28, 2020  16:38:19
       Step Size:    0.125E+00 s, Total Time:       0.25 s
       Pressure Iterations:   1000
       Maximum Velocity Error:  0.36E-02 on Mesh   1 at (  17   7  11)
       Maximum Pressure Error:  0.89E-14 on Mesh   1 at (   8  10   9)
       ---------------------------------------------------------------
       Mesh    1
       Max CFL number:  0.83E-01 at (  11,  10,  11)
       Max divergence:  0.42E-13 at (   8,  11,   7)
       Min divergence: -0.19E-13 at (  11,   9,  10)
       Max VN number:   0.94E-02 at (   4,   6,   5)
       Mesh    2
       Max CFL number:  0.91E-01 at (   6,  11,  11)
       Max divergence:  0.37E-13 at (   1,  11,  10)
       Min divergence: -0.26E-13 at (   6,  15,   8)
       Max VN number:   0.75E-02 at (  10,   3,   7)
       Mesh    3
       Max CFL number:  0.44E-01 at (  11,   9,  11)
       Max divergence:  0.17E-13 at (  16,   9,  10)
       Min divergence: -0.14E-13 at (  11,  10,  11)
       Max VN number:   0.87E-02 at (   4,   6,  11)
       Mesh    4
       Max CFL number:  0.66E-01 at (   6,   6,  10)
       Max divergence:  0.32E-13 at (   9,   1,  10)
       Min divergence: -0.24E-13 at (   6,   2,  10)
       Max VN number:   0.77E-02 at (   6,  15,   7)
       Mesh    5
       Max CFL number:  0.13E-01 at (   8,   8,   9)
       Max divergence:  0.15E-14 at (  16,   7,   8)
       Min divergence: -0.14E-14 at (  14,  11,   6)
       Max VN number:   0.82E-02 at (   4,  10,  10)
       Mesh    6
       Max CFL number:  0.15E-01 at (   6,  15,   7)
       Max divergence:  0.42E-14 at (   9,  16,   7)
       Min divergence: -0.54E-14 at (   6,  15,   8)
       Max VN number:   0.88E-02 at (   9,   5,  13)
       Mesh    7
       Max CFL number:  0.32E-01 at (  11,   8,   4)
       Max divergence:  0.13E-13 at (   7,   8,   1)
       Min divergence: -0.14E-13 at (   9,  10,   8)
       Max VN number:   0.85E-02 at (   8,   5,  14)
       Mesh    8
       Max CFL number:  0.21E-01 at (   6,   6,   6)
       Max divergence:  0.60E-14 at (   8,   1,   8)
       Min divergence: -0.91E-14 at (   5,  10,   6)
       Max VN number:   0.81E-02 at (   2,  15,   7)
 
       Time Step       3   October 28, 2020  16:38:31
       Step Size:    0.125E+00 s, Total Time:       0.38 s
       Pressure Iterations:   1000
       Maximum Velocity Error:  0.45E-02 on Mesh   1 at (  17   7  11)
       Maximum Pressure Error:  0.24E-11 on Mesh   1 at (   8   7   7)
       ---------------------------------------------------------------
       Mesh    1
       Max CFL number:  0.16E+00 at (  11,  10,  11)
       Max divergence:  0.83E-13 at (  16,  11,   8)
       Min divergence: -0.44E-13 at (  10,   8,   9)
       Max VN number:   0.24E-01 at (   6,  11,  11)
       Mesh    2
       Max CFL number:  0.20E+00 at (   6,  11,  11)
       Max divergence:  0.85E-13 at (   1,   8,   9)
       Min divergence: -0.64E-13 at (   6,  15,   9)
       Max VN number:   0.45E-01 at (   6,  11,   7)
       Mesh    3
       Max CFL number:  0.13E+00 at (  11,   9,  11)
       Max divergence:  0.44E-13 at (  11,   8,  16)
       Min divergence: -0.48E-13 at (  10,   6,  15)
       Max VN number:   0.17E-01 at (  11,   9,  11)
       Mesh    4
       Max CFL number:  0.16E+00 at (   6,   6,  10)
       Max divergence:  0.66E-13 at (   7,   1,   7)
       Min divergence: -0.73E-13 at (   6,   2,   8)
       Max VN number:   0.27E-01 at (   6,   6,  11)
       Mesh    5
       Max CFL number:  0.51E-01 at (   7,  11,  10)
       Max divergence:  0.65E-14 at (  16,   9,  11)
       Min divergence: -0.58E-14 at (  15,  10,   6)
       Max VN number:   0.82E-02 at (   4,  10,  10)
       Mesh    6
       Max CFL number:  0.73E-01 at (   6,  11,   9)
       Max divergence:  0.22E-13 at (   8,  16,   8)
       Min divergence: -0.22E-13 at (  10,  15,  10)
       Max VN number:   0.88E-02 at (   9,   5,  13)
       Mesh    7
       Max CFL number:  0.11E+00 at (  11,   8,   6)
       Max divergence:  0.42E-13 at (  10,   9,   1)
       Min divergence: -0.36E-13 at (  12,   6,   6)
       Max VN number:   0.14E-01 at (  11,   8,   6)
       Mesh    8
       Max CFL number:  0.88E-01 at (   6,   6,   6)
       Max divergence:  0.21E-13 at (   9,   1,   7)
       Min divergence: -0.33E-13 at (  10,   2,   6)
       Max VN number:   0.81E-02 at (   6,   6,   7)
 
       Time Step       4   October 28, 2020  16:38:43
       Step Size:    0.125E+00 s, Total Time:       0.50 s
       Pressure Iterations:   1000
       Maximum Velocity Error:  0.37E-02 on Mesh   2 at (   0   7  11)
       Maximum Pressure Error:  0.27E-11 on Mesh   1 at (   8   8   7)
       ---------------------------------------------------------------
       Mesh    1
       Max CFL number:  0.23E+00 at (  10,  10,  11)
       Max divergence:  0.11E-12 at (  16,   7,  10)
       Min divergence: -0.49E-13 at (  15,   9,   8)
       Max VN number:   0.72E-01 at (   6,  11,  11)
       Mesh    2
       Max CFL number:  0.32E+00 at (   6,  11,  11)
       Max divergence:  0.10E-12 at (   1,   7,   7)
       Min divergence: -0.83E-13 at (  10,  15,   8)
       Max VN number:   0.11E+00 at (   6,  11,   7)
       Mesh    3
       Max CFL number:  0.25E+00 at (  11,   9,  11)
       Max divergence:  0.81E-13 at (  11,   7,  16)
       Min divergence: -0.73E-13 at (  15,   6,   9)
       Max VN number:   0.75E-01 at (  11,  10,  11)
       Mesh    4
       Max CFL number:  0.28E+00 at (   6,   6,   9)
       Max divergence:  0.10E-12 at (   8,   1,  11)
       Min divergence: -0.88E-13 at (  10,   4,   8)
       Max VN number:   0.90E-01 at (   6,   6,  11)
       Mesh    5
       Max CFL number:  0.14E+00 at (   7,  11,  10)
       Max divergence:  0.94E-14 at (  16,   7,   8)
       Min divergence: -0.11E-13 at (  14,   9,   6)
       Max VN number:   0.27E-01 at (   6,  11,  10)
       Mesh    6
       Max CFL number:  0.19E+00 at (   6,  11,   6)
       Max divergence:  0.24E-13 at (   9,  16,   8)
       Min divergence: -0.40E-13 at (  10,  15,  10)
       Max VN number:   0.40E-01 at (   6,  11,   6)
       Mesh    7
       Max CFL number:  0.23E+00 at (  11,   8,   6)
       Max divergence:  0.60E-13 at (  11,   9,   1)
       Min divergence: -0.70E-13 at (   9,   6,  10)
       Max VN number:   0.59E-01 at (  11,   6,   6)
       Mesh    8
       Max CFL number:  0.21E+00 at (   6,   6,   6)
       Max divergence:  0.39E-13 at (   7,   1,   8)
       Min divergence: -0.60E-13 at (  10,  10,  10)
       Max VN number:   0.51E-01 at (   6,   6,   6)
 
       Time Step       5   October 28, 2020  16:38:55
       Step Size:    0.125E+00 s, Total Time:       0.62 s
       Pressure Iterations:   1000
       Maximum Velocity Error:  0.18E-02 on Mesh   1 at (  17   7  11)
       Maximum Pressure Error:  0.13E-10 on Mesh   2 at (   1   7   7)
       ---------------------------------------------------------------
       Mesh    1
       Max CFL number:  0.29E+00 at (  11,  10,  11)
       Max divergence:  0.95E-13 at (   8,  10,   7)
       Min divergence: -0.71E-13 at (  10,   9,  10)
       Max VN number:   0.12E+00 at (   6,  11,  11)
       Mesh    2
       Max CFL number:  0.45E+00 at (   6,  11,   8)
       Max divergence:  0.12E-12 at (   7,  16,   7)
       Min divergence: -0.10E-12 at (   6,  15,   8)
       Max VN number:   0.17E+00 at (   6,  11,   7)
       Mesh    3
       Max CFL number:  0.40E+00 at (  11,   9,  11)
       Max divergence:  0.87E-13 at (  11,   7,  16)
       Min divergence: -0.89E-13 at (   8,  10,  15)
       Max VN number:   0.15E+00 at (  11,  10,  11)
       Mesh    4
       Max CFL number:  0.43E+00 at (   6,   6,   9)
       Max divergence:  0.14E-12 at (   8,   1,   7)
       Min divergence: -0.12E-12 at (  10,   2,   8)
       Max VN number:   0.15E+00 at (   6,   6,  11)
       Mesh    5
       Max CFL number:  0.27E+00 at (   7,  11,  10)
       Max divergence:  0.10E-13 at (  16,  11,   7)
       Min divergence: -0.12E-13 at (  13,   8,  10)
       Max VN number:   0.62E-01 at (   6,  11,  10)
       Mesh    6
       Max CFL number:  0.36E+00 at (   6,  11,   8)
       Max divergence:  0.38E-13 at (   8,  16,   8)
       Min divergence: -0.45E-13 at (   6,  15,  10)
       Max VN number:   0.12E+00 at (   6,  11,   6)
       Mesh    7
       Max CFL number:  0.38E+00 at (  11,   8,   6)
       Max divergence:  0.80E-13 at (  10,   8,   1)
       Min divergence: -0.64E-13 at (   7,  10,   8)
       Max VN number:   0.13E+00 at (  11,   6,   6)
       Mesh    8
       Max CFL number:  0.37E+00 at (   5,   6,   6)
       Max divergence:  0.39E-13 at (   1,  11,   9)
       Min divergence: -0.61E-13 at (  10,  10,   6)
       Max VN number:   0.13E+00 at (   6,   6,   6)
 
       Time Step       6   October 28, 2020  16:38:56
       Step Size:    0.125E+00 s, Total Time:       0.75 s
       Pressure Iterations:    141
       Maximum Velocity Error:  0.10E-02 on Mesh   1 at (  17   7  11)
       Maximum Pressure Error:  0.24E-10 on Mesh   4 at (   7   1  10)
       ---------------------------------------------------------------
       Mesh    1
       Max CFL number:  0.36E+00 at (  16,  11,   8)
       Max divergence:  0.92E-13 at (   8,   7,   7)
       Min divergence: -0.49E-13 at (  11,  10,  15)
       Max VN number:   0.16E+00 at (   6,  11,  11)
       Mesh    2
       Max CFL number:  0.59E+00 at (   5,  11,   8)
       Max divergence:  0.11E-12 at (   8,  16,   7)
       Min divergence: -0.11E-12 at (   6,  15,   9)
       Max VN number:   0.22E+00 at (   6,  11,   7)
       Mesh    3
       Max CFL number:  0.56E+00 at (  11,   9,  11)
       Max divergence:  0.91E-13 at (  11,   8,  16)
       Min divergence: -0.94E-13 at (  11,   6,  11)
       Max VN number:   0.21E+00 at (  11,  10,  11)
       Mesh    4
       Max CFL number:  0.58E+00 at (   6,   6,   9)
       Max divergence:  0.12E-12 at (   8,   1,   7)
       Min divergence: -0.94E-13 at (  10,   6,   8)
       Max VN number:   0.21E+00 at (   6,   6,  11)
       Mesh    5
       Max CFL number:  0.40E+00 at (   7,  11,  10)
       Max divergence:  0.15E-13 at (  16,  10,   5)
       Min divergence: -0.10E-13 at (  13,   8,  10)
       Max VN number:   0.11E+00 at (   6,  11,  10)
       Mesh    6
       Max CFL number:  0.54E+00 at (   6,  11,   8)
       Max divergence:  0.27E-13 at (   8,  16,   9)
       Min divergence: -0.39E-13 at (   6,  15,   6)
       Max VN number:   0.20E+00 at (   6,  11,   6)
       Mesh    7
       Max CFL number:  0.56E+00 at (  11,   8,   6)
       Max divergence:  0.77E-13 at (   8,   7,   1)
       Min divergence: -0.75E-13 at (  10,   6,   8)
       Max VN number:   0.21E+00 at (  11,   6,   6)
       Mesh    8
       Max CFL number:  0.55E+00 at (   5,   6,   6)
       Max divergence:  0.42E-13 at (   5,   5,  10)
       Min divergence: -0.55E-13 at (   2,  10,   6)
       Max VN number:   0.21E+00 at (   6,   6,   6)
 
       Time Step       7   October 28, 2020  16:39:09
       Step Size:    0.125E+00 s, Total Time:       0.88 s
       Pressure Iterations:   1000
       Maximum Velocity Error:  0.25E-02 on Mesh   1 at (  17   7  11)
       Maximum Pressure Error:  0.31E-10 on Mesh   2 at (  10   9   8)
       ---------------------------------------------------------------
       Mesh    1
       Max CFL number:  0.41E+00 at (  16,  11,   8)
       Max divergence:  0.86E-13 at (  16,   7,   9)
       Min divergence: -0.39E-13 at (   9,  10,   9)
       Max VN number:   0.19E+00 at (   6,  11,  11)
       Mesh    2
       Max CFL number:  0.71E+00 at (   5,  11,  10)
       Max divergence:  0.86E-13 at (   9,  16,  11)
       Min divergence: -0.84E-13 at (   6,  15,   8)
       Max VN number:   0.25E+00 at (   6,  11,   7)
       Mesh    3
       Max CFL number:  0.72E+00 at (  11,   9,  11)
       Max divergence:  0.84E-13 at (  16,   8,  10)
       Min divergence: -0.61E-13 at (  16,   6,   9)
       Max VN number:   0.27E+00 at (  11,  10,  11)
       Mesh    4
       Max CFL number:  0.72E+00 at (   6,   5,   9)
       Max divergence:  0.11E-12 at (   7,   1,   7)
       Min divergence: -0.89E-13 at (   4,   6,   8)
       Max VN number:   0.26E+00 at (   6,   6,  11)
       Mesh    5
       Max CFL number:  0.52E+00 at (   7,   7,   6)
       Max divergence:  0.98E-14 at (  16,   7,   8)
       Min divergence: -0.84E-14 at (  15,   8,   6)
       Max VN number:   0.15E+00 at (   6,  11,  10)
       Mesh    6
       Max CFL number:  0.74E+00 at (   6,  11,   8)
       Max divergence:  0.23E-13 at (   9,  16,   8)
       Min divergence: -0.29E-13 at (  10,   9,  10)
       Max VN number:   0.27E+00 at (   6,  11,  10)
       Mesh    7
       Max CFL number:  0.73E+00 at (  11,   8,   5)
       Max divergence:  0.63E-13 at (   7,   9,   1)
       Min divergence: -0.57E-13 at (  11,   6,   2)
       Max VN number:   0.27E+00 at (  11,   6,   6)
       Mesh    8
       Max CFL number:  0.73E+00 at (   5,   6,   7)
       Max divergence:  0.44E-13 at (   5,   5,   8)
       Min divergence: -0.61E-13 at (  10,  10,   6)
       Max VN number:   0.27E+00 at (   6,   6,   6)
 
       Time Step       8   October 28, 2020  16:39:21
       Step Size:    0.125E+00 s, Total Time:       1.00 s
       Pressure Iterations:   1000
       Maximum Velocity Error:  0.33E-02 on Mesh   2 at (   0   7  11)
       Maximum Pressure Error:  0.30E-10 on Mesh   4 at (   7   1   7)
       ---------------------------------------------------------------
       Mesh    1
       Max CFL number:  0.46E+00 at (  16,  11,   8)
       Max divergence:  0.61E-13 at (   8,  11,   7)
       Min divergence: -0.30E-13 at (  11,   9,  10)
       Max VN number:   0.22E+00 at (   6,  11,  11)
       Mesh    2
       Max CFL number:  0.80E+00 at (   6,  11,  10)
       Max divergence:  0.68E-13 at (   1,   7,  11)
       Min divergence: -0.50E-13 at (   6,  15,   8)
       Max VN number:   0.26E+00 at (   6,  11,  11)
       Mesh    3
       Max CFL number:  0.85E+00 at (  11,   8,  11)
       Max divergence:  0.41E-13 at (   7,   7,  16)
       Min divergence: -0.52E-13 at (   8,  10,  11)
       Max VN number:   0.29E+00 at (  11,   6,  11)
       Mesh    4
       Max CFL number:  0.83E+00 at (   6,   6,   9)
       Max divergence:  0.63E-13 at (   6,   1,   7)
       Min divergence: -0.44E-13 at (  10,   9,  10)
       Max VN number:   0.27E+00 at (   6,   6,  11)
       Mesh    5
       Max CFL number:  0.61E+00 at (   7,   7,   6)
       Max divergence:  0.63E-14 at (  16,  11,   9)
       Min divergence: -0.59E-14 at (  15,   8,   6)
       Max VN number:   0.20E+00 at (   6,  11,  10)
       Mesh    6
       Max CFL number:  0.89E+00 at (   6,  11,   8)
       Max divergence:  0.24E-13 at (   8,  16,   9)
       Min divergence: -0.23E-13 at (   8,  15,  10)
       Max VN number:   0.31E+00 at (   6,  11,  10)
       Mesh    7
       Max CFL number:  0.87E+00 at (  11,   8,   6)
       Max divergence:  0.35E-13 at (  11,   7,   1)
       Min divergence: -0.38E-13 at (   9,   6,  10)
       Max VN number:   0.29E+00 at (  11,   6,   6)
       Mesh    8
       Max CFL number:  0.88E+00 at (   6,   6,   8)
       Max divergence:  0.25E-13 at (   1,   6,   5)
       Min divergence: -0.28E-13 at (  10,  10,  10)
       Max VN number:   0.30E+00 at (   6,   6,   6)
 
       Time Step       9   October 28, 2020  16:39:33
       Step Size:    0.125E+00 s, Total Time:       1.12 s
       Pressure Iterations:   1000
       Maximum Velocity Error:  0.32E-02 on Mesh   1 at (  17   7  11)
       Maximum Pressure Error:  0.18E-10 on Mesh   2 at (  10   9   8)
       ---------------------------------------------------------------
       Mesh    1
       Max CFL number:  0.50E+00 at (  16,  11,   8)
       Max divergence:  0.49E-13 at (  16,   8,  11)
       Min divergence: -0.25E-13 at (  12,   9,   8)
       Max VN number:   0.25E+00 at (   6,  11,  11)
       Mesh    2
       Max CFL number:  0.86E+00 at (   6,  11,  10)
       Max divergence:  0.41E-13 at (   1,   9,   7)
       Min divergence: -0.29E-13 at (   6,  15,  10)
       Max VN number:   0.30E+00 at (   7,  11,   7)
       Mesh    3
       Max CFL number:  0.92E+00 at (  11,   8,  11)
       Max divergence:  0.22E-13 at (   7,   6,  16)
       Min divergence: -0.21E-13 at (   9,   6,  15)
       Max VN number:   0.32E+00 at (  10,  10,  11)
       Mesh    4
       Max CFL number:  0.89E+00 at (   6,   6,   8)
       Max divergence:  0.29E-13 at (   9,   1,  10)
       Min divergence: -0.29E-13 at (  10,   2,  10)
       Max VN number:   0.30E+00 at (   6,   7,   7)
       Mesh    5
       Max CFL number:  0.66E+00 at (   7,   7,   6)
       Max divergence:  0.41E-14 at (  16,   8,  11)
       Min divergence: -0.34E-14 at (  16,  11,   9)
       Max VN number:   0.23E+00 at (   6,   7,   6)
       Mesh    6
       Max CFL number:  0.96E+00 at (   6,  11,   8)
       Max divergence:  0.80E-14 at (   8,  16,   8)
       Min divergence: -0.12E-13 at (  10,  15,  10)
       Max VN number:   0.33E+00 at (   6,  10,   6)
       Mesh    7
       Max CFL number:  0.94E+00 at (  11,   8,   5)
       Max divergence:  0.23E-13 at (   8,   7,   1)
       Min divergence: -0.22E-13 at (  10,   6,   2)
       Max VN number:   0.32E+00 at (  11,  10,   7)
       Mesh    8
       Max CFL number:  0.95E+00 at (   5,   6,   8)
       Max divergence:  0.15E-13 at (   1,   8,   7)
       Min divergence: -0.13E-13 at (  10,   2,   8)
       Max VN number:   0.33E+00 at (   7,   6,  10)
 
       Time Step      10   October 28, 2020  16:39:45
       Step Size:    0.125E+00 s, Total Time:       1.25 s
       Pressure Iterations:   1000
       Maximum Velocity Error:  0.24E-02 on Mesh   1 at (  17   7  11)
       Maximum Pressure Error:  0.67E-11 on Mesh   2 at (   6  16   8)
       ---------------------------------------------------------------
       Mesh    1
       Max CFL number:  0.52E+00 at (  16,  11,   8)
       Max divergence:  0.26E-13 at (   8,   7,  10)
       Min divergence: -0.12E-13 at (  12,  11,   7)
       Max VN number:   0.26E+00 at (   6,  11,  11)
       Mesh    2
       Max CFL number:  0.88E+00 at (   6,  11,  10)
       Max divergence:  0.26E-13 at (  10,  16,  11)
       Min divergence: -0.19E-13 at (   7,  11,   7)
       Max VN number:   0.32E+00 at (   7,  11,   7)
       Mesh    3
       Max CFL number:  0.92E+00 at (  11,   9,  11)
       Max divergence:  0.12E-13 at (  10,  10,  16)
       Min divergence: -0.14E-13 at (  12,   7,  11)
       Max VN number:   0.35E+00 at (  10,  10,  11)
       Mesh    4
       Max CFL number:  0.90E+00 at (   6,   5,  11)
       Max divergence:  0.13E-13 at (   8,   1,   8)
       Min divergence: -0.13E-13 at (   6,   7,   7)
       Max VN number:   0.33E+00 at (   6,   7,  11)
       Mesh    5
       Max CFL number:  0.67E+00 at (   7,   7,  10)
       Max divergence:  0.26E-14 at (   9,   8,   6)
       Min divergence: -0.38E-14 at (  16,   7,   7)
       Max VN number:   0.26E+00 at (   6,   7,   6)
       Mesh    6
       Max CFL number:  0.95E+00 at (   6,  11,  10)
       Max divergence:  0.69E-14 at (   5,  11,  10)
       Min divergence: -0.62E-14 at (   9,  14,  10)
       Max VN number:   0.36E+00 at (   6,  10,  10)
       Mesh    7
       Max CFL number:  0.93E+00 at (  11,   6,   5)
       Max divergence:  0.85E-14 at (  11,   8,   1)
       Min divergence: -0.11E-13 at (  11,   7,   2)
       Max VN number:   0.35E+00 at (  11,  10,   7)
       Mesh    8
       Max CFL number:  0.95E+00 at (   6,   6,   8)
       Max divergence:  0.86E-14 at (   6,   5,   6)
       Min divergence: -0.15E-13 at (   6,   6,   7)
       Max VN number:   0.36E+00 at (   7,   6,  10)
 
       Time Step      20   October 28, 2020  16:40:14
       Step Size:    0.110E+00 s, Total Time:       2.49 s
       Pressure Iterations:     11
       Maximum Velocity Error:  0.99E-03 on Mesh   6 at (   6  17  10)
       Maximum Pressure Error:  0.24E-11 on Mesh   2 at (   8  12   7)
       ---------------------------------------------------------------
       Mesh    1
       Max CFL number:  0.58E+00 at (  16,  10,   8)
       Max divergence:  0.13E-13 at (  16,   8,  10)
       Min divergence: -0.87E-14 at (  14,   9,   8)
       Max VN number:   0.30E+00 at (   6,   7,  11)
       Mesh    2
       Max CFL number:  0.89E+00 at (   6,  11,   9)
       Max divergence:  0.52E-13 at (   7,  11,   7)
       Min divergence: -0.54E-13 at (   7,  12,   7)
       Max VN number:   0.40E+00 at (   6,  10,  11)
       Mesh    3
       Max CFL number:  0.90E+00 at (  11,   9,  11)
       Max divergence:  0.19E-13 at (   9,   6,  14)
       Min divergence: -0.20E-13 at (  10,   7,  13)
       Max VN number:   0.40E+00 at (  11,  10,  10)
       Mesh    4
       Max CFL number:  0.86E+00 at (   4,   8,   9)
       Max divergence:  0.16E-13 at (   6,   6,   9)
       Min divergence: -0.18E-13 at (   7,   6,   7)
       Max VN number:   0.39E+00 at (   7,   6,  11)
       Mesh    5
       Max CFL number:  0.74E+00 at (  16,   8,   8)
       Max divergence:  0.39E-14 at (  16,   8,   6)
       Min divergence: -0.31E-14 at (  14,   9,   7)
       Max VN number:   0.23E+00 at (  16,   7,   6)
       Mesh    6
       Max CFL number:  0.87E+00 at (   4,   9,   8)
       Max divergence:  0.80E-14 at (   8,   9,   6)
       Min divergence: -0.75E-14 at (   6,  10,   8)
       Max VN number:   0.39E+00 at (   7,  11,  10)
       Mesh    7
       Max CFL number:  0.87E+00 at (  13,   8,   8)
       Max divergence:  0.46E-13 at (  13,   6,   8)
       Min divergence: -0.41E-13 at (  14,   6,   8)
       Max VN number:   0.39E+00 at (  10,   6,   6)
       Mesh    8
       Max CFL number:  0.90E+00 at (   5,   6,   9)
       Max divergence:  0.13E-13 at (   6,   6,   9)
       Min divergence: -0.13E-13 at (   6,   7,   7)
       Max VN number:   0.40E+00 at (   6,   7,  10)
 
       Time Step      30   October 28, 2020  16:40:37
       Step Size:    0.987E-01 s, Total Time:       3.55 s
       Pressure Iterations:     17
       Maximum Velocity Error:  0.98E-03 on Mesh   2 at (   6  17   7)
       Maximum Pressure Error:  0.19E-11 on Mesh   8 at (   7   6   8)
       ---------------------------------------------------------------
       Mesh    1
       Max CFL number:  0.54E+00 at (  15,   9,   9)
       Max divergence:  0.86E-14 at (  16,   7,   8)
       Min divergence: -0.52E-14 at (   9,  10,   8)
       Max VN number:   0.26E+00 at (   6,  11,   7)
       Mesh    2
       Max CFL number:  0.81E+00 at (   5,  11,   9)
       Max divergence:  0.14E-13 at (   8,   9,   8)
       Min divergence: -0.14E-13 at (   8,   8,   7)
       Max VN number:   0.34E+00 at (   6,  12,  11)
       Mesh    3
       Max CFL number:  0.91E+00 at (  10,   8,  11)
       Max divergence:  0.92E-14 at (  10,  10,  10)
       Min divergence: -0.15E-13 at (  11,   8,  11)
       Max VN number:   0.37E+00 at (  11,   9,  12)
       Mesh    4
       Max CFL number:  0.75E+00 at (   2,   8,   9)
       Max divergence:  0.18E-13 at (   9,   8,   8)
       Min divergence: -0.17E-13 at (  10,  10,   7)
       Max VN number:   0.33E+00 at (   9,   8,   7)
       Mesh    5
       Max CFL number:  0.75E+00 at (  16,   7,   8)
       Max divergence:  0.56E-14 at (   1,   9,   8)
       Min divergence: -0.47E-14 at (   4,   8,   8)
       Max VN number:   0.24E+00 at (  16,   7,  10)
       Mesh    6
       Max CFL number:  0.75E+00 at (   1,   7,   8)
       Max divergence:  0.11E-13 at (   8,   9,  10)
       Min divergence: -0.62E-14 at (  10,  15,   7)
       Max VN number:   0.33E+00 at (   9,   9,   6)
       Mesh    7
       Max CFL number:  0.75E+00 at (  15,   8,   8)
       Max divergence:  0.10E-13 at (  11,   6,   6)
       Min divergence: -0.94E-14 at (  11,   8,   6)
       Max VN number:   0.33E+00 at (   8,   6,   8)
       Mesh    8
       Max CFL number:  0.92E+00 at (   7,   6,   8)
       Max divergence:  0.22E-12 at (   7,   6,   8)
       Min divergence: -0.17E-12 at (   7,   6,   9)
       Max VN number:   0.37E+00 at (   6,   5,  10)
 
       Time Step      40   October 28, 2020  16:40:43
       Step Size:    0.987E-01 s, Total Time:       4.54 s
       Pressure Iterations:      8
       Maximum Velocity Error:  0.73E-03 on Mesh   3 at (  11   6  17)
       Maximum Pressure Error:  0.39E-11 on Mesh   8 at (   9   4   8)
       ---------------------------------------------------------------
       Mesh    1
       Max CFL number:  0.53E+00 at (  15,   8,   9)
       Max divergence:  0.74E-14 at (  16,  11,  11)
       Min divergence: -0.43E-14 at (  16,   9,  15)
       Max VN number:   0.26E+00 at (   6,  11,   7)
       Mesh    2
       Max CFL number:  0.79E+00 at (   6,  11,   9)
       Max divergence:  0.14E-13 at (   8,  16,   8)
       Min divergence: -0.13E-13 at (  10,  14,   7)
       Max VN number:   0.36E+00 at (   6,  12,  10)
       Mesh    3
       Max CFL number:  0.91E+00 at (  11,  10,  11)
       Max divergence:  0.98E-14 at (   9,   9,   9)
       Min divergence: -0.11E-13 at (  11,   8,  11)
       Max VN number:   0.39E+00 at (  11,   9,  12)
       Mesh    4
       Max CFL number:  0.78E+00 at (   8,   1,   9)
       Max divergence:  0.13E-13 at (   9,   8,   8)
       Min divergence: -0.13E-13 at (  10,  10,  11)
       Max VN number:   0.34E+00 at (   9,   8,  10)
       Mesh    5
       Max CFL number:  0.75E+00 at (   5,   9,   8)
       Max divergence:  0.55E-14 at (   5,   9,   8)
       Min divergence: -0.57E-14 at (  14,   7,   8)
       Max VN number:   0.25E+00 at (  16,   7,  10)
       Mesh    6
       Max CFL number:  0.78E+00 at (   9,  16,   9)
       Max divergence:  0.62E-13 at (   9,  16,   8)
       Min divergence: -0.10E-12 at (  10,  16,   8)
       Max VN number:   0.34E+00 at (   9,   9,   9)
       Mesh    7
       Max CFL number:  0.78E+00 at (   8,   9,   1)
       Max divergence:  0.98E-14 at (   7,  10,   1)
       Min divergence: -0.85E-14 at (   8,   7,   9)
       Max VN number:   0.34E+00 at (   8,   7,   8)
       Mesh    8
       Max CFL number:  0.92E+00 at (   7,   6,  10)
       Max divergence:  0.11E-11 at (   8,   5,   8)
       Min divergence: -0.90E-12 at (   8,   6,   8)
       Max VN number:   0.40E+00 at (   6,   5,   9)
 
       Time Step      50   October 28, 2020  16:40:49
       Step Size:    0.987E-01 s, Total Time:       5.53 s
       Pressure Iterations:     18
       Maximum Velocity Error:  0.95E-03 on Mesh   3 at (  10   6  17)
       Maximum Pressure Error:  0.18E-10 on Mesh   8 at (   9   4   8)
       ---------------------------------------------------------------
       Mesh    1
       Max CFL number:  0.55E+00 at (  15,  10,   9)
       Max divergence:  0.98E-14 at (  16,  11,   8)
       Min divergence: -0.46E-14 at (  12,  11,  10)
       Max VN number:   0.27E+00 at (   6,  11,   7)
       Mesh    2
       Max CFL number:  0.82E+00 at (   9,  15,   9)
       Max divergence:  0.11E-13 at (   8,  16,  10)
       Min divergence: -0.16E-13 at (   8,   8,  11)
       Max VN number:   0.40E+00 at (   6,  12,   9)
       Mesh    3
       Max CFL number:  0.92E+00 at (  11,   8,  11)
       Max divergence:  0.15E-13 at (   7,   8,  16)
       Min divergence: -0.16E-13 at (  11,   8,  11)
       Max VN number:   0.44E+00 at (  12,   6,  11)
       Mesh    4
       Max CFL number:  0.80E+00 at (   8,   1,   8)
       Max divergence:  0.19E-13 at (   9,   8,  10)
       Min divergence: -0.11E-13 at (  10,   8,   7)
       Max VN number:   0.34E+00 at (  10,  10,   9)
       Mesh    5
       Max CFL number:  0.74E+00 at (  15,   7,   7)
       Max divergence:  0.48E-14 at (  14,   7,   6)
       Min divergence: -0.52E-14 at (  15,   7,   8)
       Max VN number:   0.25E+00 at (  16,   7,  10)
       Mesh    6
       Max CFL number:  0.80E+00 at (  10,  16,   8)
       Max divergence:  0.36E-11 at (  10,  15,   8)
       Min divergence: -0.50E-11 at (  10,  16,   8)
       Max VN number:   0.34E+00 at (  10,   7,   7)
       Mesh    7
       Max CFL number:  0.80E+00 at (   7,   8,   1)
       Max divergence:  0.98E-14 at (   7,   7,   1)
       Min divergence: -0.11E-13 at (   7,   8,   1)
       Max VN number:   0.35E+00 at (   7,   7,  10)
       Mesh    8
       Max CFL number:  0.90E+00 at (   7,   6,   8)
       Max divergence:  0.78E-11 at (  10,   3,   8)
       Min divergence: -0.73E-11 at (  10,   2,   8)
       Max VN number:   0.43E+00 at (   5,   6,   6)
 
       Time Step      60   October 28, 2020  16:40:57
       Step Size:    0.987E-01 s, Total Time:       6.51 s
       Pressure Iterations:     10
       Maximum Velocity Error:  0.93E-03 on Mesh   3 at (   7   6  17)
       Maximum Pressure Error:  0.42E-09 on Mesh   8 at (  10   2   7)
       ---------------------------------------------------------------
       Mesh    1
       Max CFL number:  0.57E+00 at (  15,   9,   9)
       Max divergence:  0.11E-13 at (  16,  11,  11)
       Min divergence: -0.58E-14 at (  13,   9,  11)
       Max VN number:   0.27E+00 at (   6,  11,   7)
       Mesh    2
       Max CFL number:  0.86E+00 at (   8,  15,   8)
       Max divergence:  0.16E-13 at (   8,  16,  10)
       Min divergence: -0.11E-13 at (  10,  12,  11)
       Max VN number:   0.37E+00 at (   6,  12,   8)
       Mesh    3
       Max CFL number:  0.96E+00 at (  11,   9,  11)
       Max divergence:  0.28E-13 at (   7,   8,  14)
       Min divergence: -0.24E-13 at (   7,   8,  15)
       Max VN number:   0.41E+00 at (  12,   6,  11)
       Mesh    4
       Max CFL number:  0.81E+00 at (   9,   1,  10)
       Max divergence:  0.13E-13 at (   8,   1,  11)
       Min divergence: -0.96E-14 at (   2,   9,   7)
       Max VN number:   0.29E+00 at (   9,   8,  11)
       Mesh    5
       Max CFL number:  0.78E+00 at (  13,   9,   8)
       Max divergence:  0.41E-13 at (  16,   9,   6)
       Min divergence: -0.17E-13 at (  16,   8,   6)
       Max VN number:   0.24E+00 at (  15,   7,   6)
       Mesh    6
       Max CFL number:  0.90E+00 at (  10,  16,   9)
       Max divergence:  0.53E-10 at (   9,  16,   6)
       Min divergence: -0.48E-10 at (  10,  16,   6)
       Max VN number:   0.33E+00 at (   6,  16,   6)
       Mesh    7
       Max CFL number:  0.90E+00 at (   7,   9,   1)
       Max divergence:  0.18E-13 at (  11,   6,   8)
       Min divergence: -0.31E-13 at (  11,   6,   7)
       Max VN number:   0.33E+00 at (  11,   6,   1)
       Mesh    8
       Max CFL number:  0.96E+00 at (   6,   6,   9)
       Max divergence:  0.65E-10 at (  10,   2,   7)
       Min divergence: -0.64E-10 at (  10,   1,   7)
       Max VN number:   0.40E+00 at (   5,   6,   6)
 
       Time Step      70   October 28, 2020  16:41:02
       Step Size:    0.879E-01 s, Total Time:       7.42 s
       Pressure Iterations:      8
       Maximum Velocity Error:  0.91E-03 on Mesh   3 at (  11   8  17)
       Maximum Pressure Error:  0.10E-08 on Mesh   6 at (   7  13   6)
       ---------------------------------------------------------------
       Mesh    1
       Max CFL number:  0.52E+00 at (  15,   8,   8)
       Max divergence:  0.90E-14 at (  16,  11,   7)
       Min divergence: -0.48E-14 at (  14,   9,   8)
       Max VN number:   0.24E+00 at (   6,   7,  11)
       Mesh    2
       Max CFL number:  0.76E+00 at (   8,  15,   8)
       Max divergence:  0.14E-13 at (   9,  16,   8)
       Min divergence: -0.89E-14 at (   8,   8,   7)
       Max VN number:   0.36E+00 at (   6,  12,  11)
       Mesh    3
       Max CFL number:  0.87E+00 at (   7,   9,  16)
       Max divergence:  0.23E-13 at (   7,   6,  16)
       Min divergence: -0.13E-13 at (   8,   8,   9)
       Max VN number:   0.38E+00 at (   9,  10,  14)
       Mesh    4
       Max CFL number:  0.74E+00 at (   9,   1,   8)
       Max divergence:  0.11E-13 at (   8,   1,   8)
       Min divergence: -0.12E-13 at (  10,   9,   7)
       Max VN number:   0.26E+00 at (   5,   6,  10)
       Mesh    5
       Max CFL number:  0.70E+00 at (  16,   7,   8)
       Max divergence:  0.84E-12 at (  16,   9,   6)
       Min divergence: -0.80E-12 at (  16,   8,   6)
       Max VN number:   0.23E+00 at (  16,   7,   6)
       Mesh    6
       Max CFL number:  0.89E+00 at (  10,  15,   9)
       Max divergence:  0.15E-09 at (   6,  11,   6)
       Min divergence: -0.14E-09 at (   6,  10,   6)
       Max VN number:   0.33E+00 at (   5,  11,   6)
       Mesh    7
       Max CFL number:  0.89E+00 at (   7,   9,   2)
       Max divergence:  0.41E-13 at (   7,   6,   2)
       Min divergence: -0.42E-13 at (   7,   6,   3)
       Max VN number:   0.33E+00 at (  12,   6,   6)
       Mesh    8
       Max CFL number:  0.87E+00 at (  10,   1,   9)
       Max divergence:  0.82E-10 at (  10,   1,   6)
       Min divergence: -0.74E-10 at (  10,   1,   7)
       Max VN number:   0.38E+00 at (  10,   8,   8)
 
       Time Step      80   October 28, 2020  16:41:10
       Step Size:    0.879E-01 s, Total Time:       8.30 s
       Pressure Iterations:     20
       Maximum Velocity Error:  0.99E-03 on Mesh   6 at (   6  17  10)
       Maximum Pressure Error:  0.77E-09 on Mesh   6 at (   6  10   7)
       ---------------------------------------------------------------
       Mesh    1
       Max CFL number:  0.52E+00 at (  15,   8,   8)
       Max divergence:  0.10E-13 at (  16,  11,   8)
       Min divergence: -0.49E-14 at (  16,   8,  15)
       Max VN number:   0.24E+00 at (   6,  11,   7)
       Mesh    2
       Max CFL number:  0.80E+00 at (   8,  13,   9)
       Max divergence:  0.11E-13 at (   8,  13,  10)
       Min divergence: -0.86E-14 at (  10,  14,   7)
       Max VN number:   0.34E+00 at (   6,  12,   8)
       Mesh    3
       Max CFL number:  0.80E+00 at (  10,   9,  11)
       Max divergence:  0.18E-13 at (   9,   9,  10)
       Min divergence: -0.11E-13 at (   9,   8,  13)
       Max VN number:   0.39E+00 at (  12,   6,  11)
       Mesh    4
       Max CFL number:  0.77E+00 at (   9,   1,   8)
       Max divergence:  0.12E-13 at (   8,   1,   9)
       Min divergence: -0.94E-14 at (  10,  10,   7)
       Max VN number:   0.28E+00 at (   5,   6,  10)
       Mesh    5
       Max CFL number:  0.73E+00 at (  16,   7,   6)
       Max divergence:  0.61E-11 at (  16,   7,   6)
       Min divergence: -0.59E-11 at (  16,   8,   6)
       Max VN number:   0.23E+00 at (  15,   7,  10)
       Mesh    6
       Max CFL number:  0.81E+00 at (   8,  14,   6)
       Max divergence:  0.24E-09 at (   6,  10,   7)
       Min divergence: -0.22E-09 at (   6,  10,   6)
       Max VN number:   0.35E+00 at (   6,  11,   6)
       Mesh    7
       Max CFL number:  0.82E+00 at (   9,   6,   2)
       Max divergence:  0.38E-13 at (  11,   7,   7)
       Min divergence: -0.43E-13 at (  11,   6,   7)
       Max VN number:   0.36E+00 at (  11,   6,   6)
       Mesh    8
       Max CFL number:  0.78E+00 at (   6,   6,   9)
       Max divergence:  0.97E-11 at (  10,   1,   6)
       Min divergence: -0.68E-11 at (   9,   1,   6)
       Max VN number:   0.39E+00 at (   5,   6,   6)
 
       Time Step      90   October 28, 2020  16:41:16
       Step Size:    0.879E-01 s, Total Time:       9.18 s
       Pressure Iterations:     10
       Maximum Velocity Error:  0.96E-03 on Mesh   7 at (  17  10  10)
       Maximum Pressure Error:  0.16E-08 on Mesh   6 at (   5   8   6)
       ---------------------------------------------------------------
       Mesh    1
       Max CFL number:  0.52E+00 at (  11,   8,   8)
       Max divergence:  0.10E-13 at (  16,  11,  11)
       Min divergence: -0.46E-14 at (  14,   7,   8)
       Max VN number:   0.24E+00 at (   6,  11,   7)
       Mesh    2
       Max CFL number:  0.83E+00 at (   9,  15,   9)
       Max divergence:  0.13E-13 at (   8,  16,   8)
       Min divergence: -0.76E-14 at (  10,  13,  10)
       Max VN number:   0.39E+00 at (   6,  12,   7)
       Mesh    3
       Max CFL number:  0.79E+00 at (   7,   9,  15)
       Max divergence:  0.15E-13 at (   7,   9,  16)
       Min divergence: -0.13E-13 at (  11,   9,  11)
       Max VN number:   0.38E+00 at (  12,   6,  11)
       Mesh    4
       Max CFL number:  0.80E+00 at (   9,   1,   9)
       Max divergence:  0.13E-13 at (   8,   1,  10)
       Min divergence: -0.10E-13 at (  10,  10,  10)
       Max VN number:   0.27E+00 at (   5,   6,   8)
       Mesh    5
       Max CFL number:  0.73E+00 at (  16,   7,   7)
       Max divergence:  0.18E-10 at (  16,   7,   6)
       Min divergence: -0.20E-10 at (  16,   7,   7)
       Max VN number:   0.24E+00 at (  16,   7,  10)
       Mesh    6
       Max CFL number:  0.80E+00 at (   3,   7,   6)
       Max divergence:  0.20E-09 at (   5,   8,   6)
       Min divergence: -0.16E-09 at (   5,   9,   6)
       Max VN number:   0.39E+00 at (   5,  10,   6)
       Mesh    7
       Max CFL number:  0.81E+00 at (  13,   6,  10)
       Max divergence:  0.15E-13 at (  12,   6,   9)
       Min divergence: -0.23E-13 at (  12,   6,  10)
       Max VN number:   0.39E+00 at (  12,   6,   7)
       Mesh    8
       Max CFL number:  0.77E+00 at (  10,   2,   9)
       Max divergence:  0.12E-12 at (  10,   1,   6)
       Min divergence: -0.12E-12 at (   9,   1,   6)
       Max VN number:   0.34E+00 at (   5,   6,   6)
 
       Time Step     100   October 28, 2020  16:41:22
       Step Size:    0.879E-01 s, Total Time:      10.06 s
       Pressure Iterations:      7
       Maximum Velocity Error:  0.96E-03 on Mesh   5 at (  13  11  11)
       Maximum Pressure Error:  0.17E-08 on Mesh   6 at (   4   8   7)
       ---------------------------------------------------------------
       Mesh    1
       Max CFL number:  0.52E+00 at (   9,   8,   8)
       Max divergence:  0.10E-13 at (  16,  10,   7)
       Min divergence: -0.52E-14 at (   7,   8,   6)
       Max VN number:   0.24E+00 at (   6,   7,   7)
       Mesh    2
       Max CFL number:  0.86E+00 at (   9,  15,   9)
       Max divergence:  0.14E-13 at (   8,  13,   8)
       Min divergence: -0.81E-14 at (  10,  10,  10)
       Max VN number:   0.36E+00 at (   6,  12,   7)
       Mesh    3
       Max CFL number:  0.84E+00 at (  10,   9,  11)
       Max divergence:  0.11E-13 at (  10,   8,   9)
       Min divergence: -0.13E-13 at (  11,   9,  11)
       Max VN number:   0.37E+00 at (  12,   6,  11)
       Mesh    4
       Max CFL number:  0.86E+00 at (   9,   1,   9)
       Max divergence:  0.12E-13 at (   8,   1,   8)
       Min divergence: -0.12E-13 at (  10,   9,   8)
       Max VN number:   0.29E+00 at (   4,   6,  11)
       Mesh    5
       Max CFL number:  0.84E+00 at (  16,   7,   8)
       Max divergence:  0.20E-09 at (  16,   7,   8)
       Min divergence: -0.17E-09 at (  15,   7,   8)
       Max VN number:   0.28E+00 at (  16,   7,  10)
       Mesh    6
       Max CFL number:  0.84E+00 at (   1,   7,   8)
       Max divergence:  0.25E-09 at (   3,   7,   7)
       Min divergence: -0.24E-09 at (   2,   7,   7)
       Max VN number:   0.36E+00 at (  10,   7,   9)
       Mesh    7
       Max CFL number:  0.85E+00 at (  15,   8,  10)
       Max divergence:  0.11E-13 at (   7,   9,   1)
       Min divergence: -0.11E-13 at (   8,   6,   6)
       Max VN number:   0.37E+00 at (   7,   9,  10)
       Mesh    8
       Max CFL number:  0.85E+00 at (   1,   8,  10)
       Max divergence:  0.11E-13 at (   9,   9,   8)
       Min divergence: -0.11E-13 at (  10,  10,   6)
       Max VN number:   0.35E+00 at (  10,   5,  10)
 
       Time Step     200   October 28, 2020  16:42:37
       Step Size:    0.879E-01 s, Total Time:      18.85 s
       Pressure Iterations:      8
       Maximum Velocity Error:  0.97E-03 on Mesh   2 at (   9  17   9)
       Maximum Pressure Error:  0.46E-09 on Mesh   8 at (   4   9  10)
       ---------------------------------------------------------------
       Mesh    1
       Max CFL number:  0.54E+00 at (  15,   8,   9)
       Max divergence:  0.71E-14 at (  16,  10,   8)
       Min divergence: -0.49E-14 at (   8,  10,   6)
       Max VN number:   0.26E+00 at (   6,  11,  11)
       Mesh    2
       Max CFL number:  0.85E+00 at (   9,  16,  10)
       Max divergence:  0.13E-13 at (   8,  16,   9)
       Min divergence: -0.76E-14 at (  10,   8,   7)
       Max VN number:   0.35E+00 at (   6,  12,  10)
       Mesh    3
       Max CFL number:  0.86E+00 at (  11,  10,  11)
       Max divergence:  0.87E-14 at (  16,   9,   9)
       Min divergence: -0.99E-14 at (   7,   6,  15)
       Max VN number:   0.45E+00 at (  12,   6,  11)
       Mesh    4
       Max CFL number:  0.85E+00 at (   9,   2,   9)
       Max divergence:  0.91E-14 at (   8,   1,   9)
       Min divergence: -0.88E-14 at (  10,   9,   8)
       Max VN number:   0.28E+00 at (  10,   1,   7)
       Mesh    5
       Max CFL number:  0.82E+00 at (  15,   7,   7)
       Max divergence:  0.65E-14 at (  16,   7,   7)
       Min divergence: -0.53E-14 at (  12,   8,  10)
       Max VN number:   0.31E+00 at (  15,  11,  10)
       Mesh    6
       Max CFL number:  0.87E+00 at (   2,   7,   7)
       Max divergence:  0.32E-13 at (  10,  16,   9)
       Min divergence: -0.34E-13 at (  10,  16,   8)
       Max VN number:   0.46E+00 at (   8,   7,   8)
       Mesh    7
       Max CFL number:  0.83E+00 at (   7,   9,   1)
       Max divergence:  0.50E-11 at (  16,   9,  10)
       Min divergence: -0.55E-11 at (  16,  10,  10)
       Max VN number:   0.51E+00 at (   7,   8,  10)
       Mesh    8
       Max CFL number:  0.85E+00 at (   4,   9,  10)
       Max divergence:  0.74E-10 at (   4,   9,  10)
       Min divergence: -0.71E-10 at (   4,  10,  10)
       Max VN number:   0.39E+00 at (  10,   6,  10)
 
