
 Fire Dynamics Simulator

 Current Date     : October 13, 2020  19:05:14
 Revision         : FDS6.7.5-254-g2178300-master
 Revision Date    : Fri Oct 9 15:16:47 2020 -0400
 Compiler         : Intel ifort 18.0.1
 Compilation Date : Oct 12, 2020 10:43:49

 MPI Enabled;    Number of MPI Processes:       7
 OpenMP Enabled; Number of OpenMP Threads:      2

 MPI version: 3.1
 MPI library version: Intel(R) MPI Library 2018 Update 1 for Linux* OS


 Job TITLE        : 
 Job ID string    : 20B0218_Goldbeck_Split-Level_SZ3_M7_v05


 Grid Dimensions, Mesh     1

   Cells in the X Direction           164
   Cells in the Y Direction            60
   Cells in the Z Direction            40
   Number of Grid Cells            393600


 Physical Dimensions, Mesh     1

   Length (m)                      32.800
   Width  (m)                      12.000
   Height (m)                       8.000
   Initial Time Step (s)            0.112

 Grid Dimensions, Mesh     2

   Cells in the X Direction           164
   Cells in the Y Direction            60
   Cells in the Z Direction            40
   Number of Grid Cells            393600


 Physical Dimensions, Mesh     2

   Length (m)                      32.800
   Width  (m)                      12.000
   Height (m)                       8.000
   Initial Time Step (s)            0.112

 Grid Dimensions, Mesh     3

   Cells in the X Direction           164
   Cells in the Y Direction            60
   Cells in the Z Direction            40
   Number of Grid Cells            393600


 Physical Dimensions, Mesh     3

   Length (m)                      32.800
   Width  (m)                      12.000
   Height (m)                       8.000
   Initial Time Step (s)            0.112

 Grid Dimensions, Mesh     4

   Cells in the X Direction           168
   Cells in the Y Direction            60
   Cells in the Z Direction            40
   Number of Grid Cells            403200


 Physical Dimensions, Mesh     4

   Length (m)                      33.600
   Width  (m)                      12.000
   Height (m)                       8.000
   Initial Time Step (s)            0.112

 Grid Dimensions, Mesh     5

   Cells in the X Direction            78
   Cells in the Y Direction            60
   Cells in the Z Direction            40
   Number of Grid Cells            187200


 Physical Dimensions, Mesh     5

   Length (m)                      15.600
   Width  (m)                      12.000
   Height (m)                       8.000
   Initial Time Step (s)            0.112

 Grid Dimensions, Mesh     6

   Cells in the X Direction            90
   Cells in the Y Direction            60
   Cells in the Z Direction            40
   Number of Grid Cells            216000


 Physical Dimensions, Mesh     6

   Length (m)                      18.000
   Width  (m)                      12.000
   Height (m)                       8.000
   Initial Time Step (s)            0.112

 Grid Dimensions, Mesh     7

   Cells in the X Direction           168
   Cells in the Y Direction            60
   Cells in the Z Direction            40
   Number of Grid Cells            403200


 Physical Dimensions, Mesh     7

   Length (m)                      33.600
   Width  (m)                      12.000
   Height (m)                       8.000
   Initial Time Step (s)            0.112

Total Number of Grid Cells       2390400


 Miscellaneous Parameters

   Simulation Start Time (s)          0.0
   Simulation End Time (s)         5400.0
   LES Calculation
   Eddy Viscosity:           Deardorff Model (C_DEARDORFF = 0.10)
   Near-wall Eddy Viscosity: Smagorinsky with Van Driest damping (C_SMAGORINSKY = 0.20)
   Turbulent Prandtl Number:         0.50
   Turbulent Schmidt Number:         0.50
   Ambient Temperature (C):         20.00


 Mass Fraction Transformation Matrix to Convert Species Mixtures (Columns) to Primitive Species (Rows)

                         AIR       REAC_FUE  PRODUCTS
   REAC_FUEL             0.000000  1.000000  0.000000
   NITROGEN              0.762470  0.000000  0.702658
   OXYGEN                0.230997  0.000000  0.000000
   CARBON DIOXIDE        0.000591  0.000000  0.213555
   CARBON MONOXIDE       0.000000  0.000000  0.000000
   WATER VAPOR           0.005941  0.000000  0.076457
   SOOT                  0.000000  0.000000  0.007330
   HYDROGEN              0.000000  0.000000  0.000000


 Primitive Species Information

   REAC_FUEL
   Gas Species
   Molecular Weight (g/mol)            14.95845
   Ambient Density (kg/m^3)            0.622
   Enthalpy of Formation (J/kg)       -9.27E+06

   NITROGEN
   Gas Species
   Molecular Weight (g/mol)            28.01340
   Ambient Density (kg/m^3)            1.165
   Enthalpy of Formation (J/kg)        0.00E+00

   OXYGEN
   Gas Species
   Molecular Weight (g/mol)            31.99880
   Ambient Density (kg/m^3)            1.330
   Enthalpy of Formation (J/kg)        0.00E+00

   CARBON DIOXIDE
   Gas Species
   Molecular Weight (g/mol)            44.00950
   Ambient Density (kg/m^3)            1.830
   Enthalpy of Formation (J/kg)       -8.94E+06

   CARBON MONOXIDE
   Gas Species
   Molecular Weight (g/mol)            28.01010
   Ambient Density (kg/m^3)            1.164
   Enthalpy of Formation (J/kg)       -3.95E+06

   WATER VAPOR
   Gas Species
   Molecular Weight (g/mol)            18.01528
   Ambient Density (kg/m^3)            0.749
   Enthalpy of Formation (J/kg)       -1.34E+07

   SOOT
   Gas Species
   Molecular Weight (g/mol)            10.91042
   Ambient Density (kg/m^3)            0.454
   Enthalpy of Formation (J/kg)        0.00E+00

   HYDROGEN
   Gas Species
   Molecular Weight (g/mol)             2.01588
   Ambient Density (kg/m^3)            0.084
   Enthalpy of Formation (J/kg)        0.00E+00


 Tracked (Lumped) Species Information

   AIR
   Molecular Weight (g/mol)            28.75199
   Ambient Density (kg/m^3)            1.195
   Initial Mass Fraction               1.000
   Enthalpy of Formation (J/kg)     -8.50E+04

   Sub Species                    Mass Fraction     Mole Fraction
   NITROGEN                       7.624701E-01      7.825730E-01
   OXYGEN                         2.309974E-01      2.075589E-01
   CARBON DIOXIDE                 5.914651E-04      3.864120E-04
   WATER VAPOR                    5.940984E-03      9.481679E-03
 
     Viscosity (kg/m/s) Ambient,  293 K:  1.80E-05
                                  500 K:  2.61E-05
                                 1000 K:  4.13E-05
                                 1500 K:  5.37E-05
   Therm. Cond. (W/m/K) Ambient,  293 K:  2.56E-02
                                  500 K:  3.81E-02
                                 1000 K:  6.69E-02
                                 1500 K:  9.25E-02
        Enthalpy (J/kg) Ambient,  293 K: -9.01E+04
                                  500 K:  1.22E+05
                                 1000 K:  6.72E+05
                                 1500 K:  1.27E+06
    Spec. Heat (J/kg/K) Ambient,  293 K:  1.02E+03
                                  500 K:  1.04E+03
                                 1000 K:  1.16E+03
                                 1500 K:  1.23E+03
   Diff. Coeff. (m^2/s) Ambient,  293 K:  1.99E-05
                                  500 K:  4.96E-05
                                 1000 K:  1.58E-04
                                 1500 K:  3.09E-04

   REAC_FUEL
   Molecular Weight (g/mol)            14.95845
   Ambient Density (kg/m^3)            0.622
   Initial Mass Fraction               0.000
   Enthalpy of Formation (J/kg)     -9.27E+06

   Sub Species                    Mass Fraction     Mole Fraction
   REAC_FUEL                      1.000000E+00      1.000000E+00
 
     Viscosity (kg/m/s) Ambient,  293 K:  1.27E-05
                                  500 K:  1.84E-05
                                 1000 K:  2.89E-05
                                 1500 K:  3.75E-05
   Therm. Cond. (W/m/K) Ambient,  293 K:  3.48E-02
                                  500 K:  5.03E-02
                                 1000 K:  7.91E-02
                                 1500 K:  1.03E-01
        Enthalpy (J/kg) Ambient,  293 K: -9.28E+06
                                  500 K: -8.87E+06
                                 1000 K: -7.90E+06
                                 1500 K: -6.93E+06
    Spec. Heat (J/kg/K) Ambient,  293 K:  1.95E+03
                                  500 K:  1.95E+03
                                 1000 K:  1.95E+03
                                 1500 K:  1.95E+03
   Diff. Coeff. (m^2/s) Ambient,  293 K:  2.38E-05
                                  500 K:  5.91E-05
                                 1000 K:  1.88E-04
                                 1500 K:  3.68E-04

   PRODUCTS
   Molecular Weight (g/mol)            28.69337
   Ambient Density (kg/m^3)            1.193
   Initial Mass Fraction               0.000
   Enthalpy of Formation (J/kg)     -2.94E+06

   Sub Species                    Mass Fraction     Mole Fraction
   NITROGEN                       7.026583E-01      7.197139E-01
   CARBON DIOXIDE                 2.135546E-01      1.392336E-01
   CARBON MONOXIDE                0.000000E+00      0.000000E+00
   WATER VAPOR                    7.645708E-02      1.217750E-01
   SOOT                           7.330093E-03      1.927744E-02
 
     Viscosity (kg/m/s) Ambient,  293 K:  1.62E-05
                                  500 K:  2.40E-05
                                 1000 K:  3.89E-05
                                 1500 K:  5.12E-05
   Therm. Cond. (W/m/K) Ambient,  293 K:  2.32E-02
                                  500 K:  3.61E-02
                                 1000 K:  6.68E-02
                                 1500 K:  9.51E-02
        Enthalpy (J/kg) Ambient,  293 K: -2.94E+06
                                  500 K: -2.72E+06
                                 1000 K: -2.12E+06
                                 1500 K: -1.45E+06
    Spec. Heat (J/kg/K) Ambient,  293 K:  1.06E+03
                                  500 K:  1.12E+03
                                 1000 K:  1.27E+03
                                 1500 K:  1.37E+03
   Diff. Coeff. (m^2/s) Ambient,  293 K:  1.95E-05
                                  500 K:  4.92E-05
                                 1000 K:  1.58E-04
                                 1500 K:  3.11E-04


 Gas Phase Reaction Information

   Mischbrandlast aus:		40% Polyethylen,30% Styropor, 30% Polyurethan

   Reaction ID:  Reaction1

   Fuel                                           Heat of Combustion (kJ/kg)
   REAC_FUEL                                                      25820.0000

   Stoichiometry

   Primitive Species Stoich. Coeff.
   Species ID                                                          Molar
   REAC_FUEL                                                       -1.000000
   NITROGEN                                                         0.015000
   OXYGEN                                                          -1.217862
   CARBON DIOXIDE                                                   0.888947
   WATER VAPOR                                                      0.723830
   SOOT                                                             0.123392

   Tracked (Lumped) Species Stoich. Coeff.
   Species ID                                             Molar         Mass
   AIR                                                -5.867550   -11.278153
   REAC_FUEL                                          -1.000000    -1.000000
   PRODUCTS                                            6.400858    12.278153

   Reaction Kinetics

   Arrhenius Parameters
   Pre-exponential:    Infinite
   Activation Energy:  N/A

   ODE Solver:  EXPLICIT EULER
   Extinction Model:  EXTINCTION 2
   Auto-Ignition Temperature (K):       0.0
   Critical Flame Temperature (K):   1700.2


 Material Information

   1 CONCRETE                                                    
     Stahlbeton C30-C37 WU
     Emissivity                      0.900
     Density (kg/m3)                2400.0
     Specific Heat (kJ/kg/K)      1.00E+00
     Conductivity (W/m/K)          2.10E+00

   2 STEEL                                                       
     Drysdale, Intro to Fire Dynamics - ATF NIST Multi-Floor Validation
     Emissivity                     95.000
     Density (kg/m3)                7850.0
     Specific Heat (kJ/kg/K)      4.60E-01
     Conductivity (W/m/K)          4.58E+01

   3 STEEL03                                                     
     Drysdale, Intro to Fire Dynamics - ATF NIST Multi-Floor Validation
     Emissivity                      0.950
     Density (kg/m3)                7850.0
     Specific Heat (kJ/kg/K)      4.60E-01
     Conductivity (W/m/K)          4.58E+01


 Surface Conditions

   0 INERT (DEFAULT)

   1 ADIABATIC

   2 BETON
     Material List
          1  CONCRETE
     Layer  1
        Thickness   (m):  0.10000
        Density (kg/m3):  2400.00
        CONCRETE, Mass fraction:    1.00
     Total surface density   240.000 kg/m2
     Reaction products considered from the first  0.50 layers.
     Solid Phase Node, Layer, Coordinates(m):
                    0      1       0.0000000
                    1      1       0.0007937
                    2      1       0.0023810
                    3      1       0.0055556
                    4      1       0.0119048
                    5      1       0.0246032
                    6      1       0.0500000
                    7      1       0.0753968
                    8      1       0.0880952
                    9      1       0.0944444
                   10      1       0.0976190
                   11      1       0.0992063
                   12      1       0.1000000
     Exposed Backing

   3 STAHL
     Material List
          1  STEEL
     Layer  1
        Thickness   (m):  0.05000
        Density (kg/m3):  7850.00
        STEEL, Mass fraction:    1.00
     Total surface density   392.500 kg/m2
     Reaction products considered from the first  0.50 layers.
     Solid Phase Node, Layer, Coordinates(m):
                    0      1       0.0000000
                    1      1       0.0022727
                    2      1       0.0068182
                    3      1       0.0159091
                    4      1       0.0340909
                    5      1       0.0431818
                    6      1       0.0477273
                    7      1       0.0500000
     Exposed Backing

   4 CAR_BODY02
     Properties completely fabricated
     Material List
          1  STEEL03
     Layer  1
        Thickness   (m):  0.00120
        Density (kg/m3):  7850.00
        STEEL03, Mass fraction:    1.00
     Total surface density     9.420 kg/m2
     Reaction products considered from the first  0.50 layers.
     Solid Phase Node, Layer, Coordinates(m):
                    0      1       0.0000000
                    1      1       0.0012000
     Exposed Backing

   5 BURNER_VAN
     HRR Per Unit Area (kW/m2)       3846.2
     REAC_FUEL Mass Flux (kg/s/m2)   1.49E-01

   6 OPEN
     Passive Vent to Atmosphere

   7 MIRROR
     Symmetry Plane

   8 INTERPOLATED

   9 PERIODIC

  10 HVAC

  11 MASSLESS TRACER

  12 DROPLET

  13 EVACUATION_OUTFLOW
     Normal Velocity (m/s)         0.000

  14 MASSLESS TARGET

  15 PERIODIC FLOW ONLY


 Cut-off Density and Temperature

    Minimum Temperature:   -10.0 C
    Maximum Temperature:  2726.8 C
    Minimum Density:  1.195E-01 kg/m3
    Maximum Density:  2.663E+00 kg/m3


 Device Coordinates

     1 Coords:      0.000000      0.000000      0.002000, Make: null, ID: VEL_ERROR, Quantity: MAXIMUM VELOCITY ERROR
     2 Coords:      0.000000      0.000000      0.002000, Make: null, ID: PRES_ITE, Quantity: PRESSURE ITERATIONS
     3 Coords:     33.100000      8.500000      1.700000, Make: null, ID: VAN_130, Quantity: TEMPERATURE
     4 Coords:     33.100000      8.500000      2.100000, Make: null, ID: VAN_170, Quantity: TEMPERATURE
     5 Coords:     33.100000      8.500000      2.500000, Make: null, ID: VAN_210, Quantity: TEMPERATURE
     6 Coords:     33.100000     11.700000      2.500000, Make: null, ID: SZ3_DT_0/3.20_1, Quantity: ADIABATIC SURFACE TEMPERATURE
     7 Coords:     33.100000     11.300000      2.500000, Make: null, ID: SZ3_DT_0/2.80_1, Quantity: ADIABATIC SURFACE TEMPERATURE
     8 Coords:     33.100000     10.900000      2.500000, Make: null, ID: SZ3_DT_0/2.40_1, Quantity: ADIABATIC SURFACE TEMPERATURE
     9 Coords:     33.100000     10.500000      2.500000, Make: null, ID: SZ3_DT_0/2.00_1, Quantity: ADIABATIC SURFACE TEMPERATURE
    10 Coords:     33.100000     10.100000      2.500000, Make: null, ID: SZ3_DT_0/1.60_1, Quantity: ADIABATIC SURFACE TEMPERATURE
    11 Coords:     33.100000      9.700000      2.500000, Make: null, ID: SZ3_DT_0/1.20_1, Quantity: ADIABATIC SURFACE TEMPERATURE
    12 Coords:     33.100000      9.300000      2.500000, Make: null, ID: SZ3_DT_0/0.80_1, Quantity: ADIABATIC SURFACE TEMPERATURE
    13 Coords:     33.100000      8.900000      2.500000, Make: null, ID: SZ3_DT_0/0.40_1, Quantity: ADIABATIC SURFACE TEMPERATURE
    14 Coords:     33.100000      8.500000      2.500000, Make: null, ID: SZ3_DT_0/0.00_1, Quantity: ADIABATIC SURFACE TEMPERATURE
    15 Coords:     33.100000      8.100000      2.500000, Make: null, ID: SZ3_DT_0/-0.40_1, Quantity: ADIABATIC SURFACE TEMPERATURE
    16 Coords:     33.100000      7.700000      2.500000, Make: null, ID: SZ3_DT_0/-0.80_1, Quantity: ADIABATIC SURFACE TEMPERATURE
    17 Coords:     33.100000      7.300000      2.500000, Make: null, ID: SZ3_DT_0/-1.20_1, Quantity: ADIABATIC SURFACE TEMPERATURE
    18 Coords:     33.100000      6.900000      2.500000, Make: null, ID: SZ3_DT_0/-1.60_1, Quantity: ADIABATIC SURFACE TEMPERATURE
    19 Coords:     33.100000      6.500000      2.500000, Make: null, ID: SZ3_DT_0/-2.00_1, Quantity: ADIABATIC SURFACE TEMPERATURE
    20 Coords:     33.100000      6.100000      2.500000, Make: null, ID: SZ3_DT_0/-2.40_1, Quantity: ADIABATIC SURFACE TEMPERATURE
    21 Coords:     33.100000      5.700000      2.500000, Make: null, ID: SZ3_DT_0/-2.80_1, Quantity: ADIABATIC SURFACE TEMPERATURE
    22 Coords:     33.100000      5.300000      2.500000, Make: null, ID: SZ3_DT_0/-3.20_1, Quantity: ADIABATIC SURFACE TEMPERATURE
    23 Coords:     30.500000      5.300000      2.500000, Make: null, ID: SZ3_DT_-1/-3.20_1, Quantity: ADIABATIC SURFACE TEMPERATURE
    24 Coords:     30.500000     11.700000      2.500000, Make: null, ID: SZ3_DT_-1/3.20_1, Quantity: ADIABATIC SURFACE TEMPERATURE
    25 Coords:     30.500000     11.300000      2.500000, Make: null, ID: SZ3_DT_-1/2.80_1, Quantity: ADIABATIC SURFACE TEMPERATURE
    26 Coords:     30.500000     10.900000      2.500000, Make: null, ID: SZ3_DT_-1/2.40_1, Quantity: ADIABATIC SURFACE TEMPERATURE
    27 Coords:     30.500000     10.500000      2.500000, Make: null, ID: SZ3_DT_-1/2.00_1, Quantity: ADIABATIC SURFACE TEMPERATURE
    28 Coords:     30.500000     10.100000      2.500000, Make: null, ID: SZ3_DT_-1/1.60_1, Quantity: ADIABATIC SURFACE TEMPERATURE
    29 Coords:     30.500000      9.700000      2.500000, Make: null, ID: SZ3_DT_-1/1.20_1, Quantity: ADIABATIC SURFACE TEMPERATURE
    30 Coords:     30.500000      9.300000      2.500000, Make: null, ID: SZ3_DT_-1/0.80_1, Quantity: ADIABATIC SURFACE TEMPERATURE
    31 Coords:     30.500000      8.900000      2.500000, Make: null, ID: SZ3_DT_-1/0.40_1, Quantity: ADIABATIC SURFACE TEMPERATURE
    32 Coords:     30.500000      8.500000      2.500000, Make: null, ID: SZ3_DT_-1/0.00_1, Quantity: ADIABATIC SURFACE TEMPERATURE
    33 Coords:     30.500000      8.100000      2.500000, Make: null, ID: SZ3_DT_-1/-0.40_1, Quantity: ADIABATIC SURFACE TEMPERATURE
    34 Coords:     30.500000      7.700000      2.500000, Make: null, ID: SZ3_DT_-1/-0.80_1, Quantity: ADIABATIC SURFACE TEMPERATURE
    35 Coords:     30.500000      7.300000      2.500000, Make: null, ID: SZ3_DT_-1/-1.20_1, Quantity: ADIABATIC SURFACE TEMPERATURE
    36 Coords:     30.500000      6.900000      2.500000, Make: null, ID: SZ3_DT_-1/-1.60_1, Quantity: ADIABATIC SURFACE TEMPERATURE
    37 Coords:     30.500000      6.500000      2.500000, Make: null, ID: SZ3_DT_-1/-2.00_1, Quantity: ADIABATIC SURFACE TEMPERATURE
    38 Coords:     30.500000      6.100000      2.500000, Make: null, ID: SZ3_DT_-1/-2.40_1, Quantity: ADIABATIC SURFACE TEMPERATURE
    39 Coords:     30.500000      5.700000      2.500000, Make: null, ID: SZ3_DT_-1/-2.80_1, Quantity: ADIABATIC SURFACE TEMPERATURE
    40 Coords:     35.500000      5.700000      2.500000, Make: null, ID: SZ3_DT_1/-2.80_1, Quantity: ADIABATIC SURFACE TEMPERATURE
    41 Coords:     35.500000      5.300000      2.500000, Make: null, ID: SZ3_DT_1/-3.20_1, Quantity: ADIABATIC SURFACE TEMPERATURE
    42 Coords:     35.500000     11.700000      2.500000, Make: null, ID: SZ3_DT_1/3.20_1, Quantity: ADIABATIC SURFACE TEMPERATURE
    43 Coords:     35.500000     11.300000      2.500000, Make: null, ID: SZ3_DT_1/2.80_1, Quantity: ADIABATIC SURFACE TEMPERATURE
    44 Coords:     35.500000     10.900000      2.500000, Make: null, ID: SZ3_DT_1/2.40_1, Quantity: ADIABATIC SURFACE TEMPERATURE
    45 Coords:     35.500000     10.500000      2.500000, Make: null, ID: SZ3_DT_1/2.00_1, Quantity: ADIABATIC SURFACE TEMPERATURE
    46 Coords:     35.500000     10.100000      2.500000, Make: null, ID: SZ3_DT_1/1.60_1, Quantity: ADIABATIC SURFACE TEMPERATURE
    47 Coords:     35.500000      9.700000      2.500000, Make: null, ID: SZ3_DT_1/1.20_1, Quantity: ADIABATIC SURFACE TEMPERATURE
    48 Coords:     35.500000      9.300000      2.500000, Make: null, ID: SZ3_DT_1/0.80_1, Quantity: ADIABATIC SURFACE TEMPERATURE
    49 Coords:     35.500000      8.900000      2.500000, Make: null, ID: SZ3_DT_1/0.40_1, Quantity: ADIABATIC SURFACE TEMPERATURE
    50 Coords:     35.500000      8.500000      2.500000, Make: null, ID: SZ3_DT_1/0.00_1, Quantity: ADIABATIC SURFACE TEMPERATURE
    51 Coords:     35.500000      8.100000      2.500000, Make: null, ID: SZ3_DT_1/-0.40_1, Quantity: ADIABATIC SURFACE TEMPERATURE
    52 Coords:     35.500000      7.700000      2.500000, Make: null, ID: SZ3_DT_1/-0.80_1, Quantity: ADIABATIC SURFACE TEMPERATURE
    53 Coords:     35.500000      7.300000      2.500000, Make: null, ID: SZ3_DT_1/-1.20_1, Quantity: ADIABATIC SURFACE TEMPERATURE
    54 Coords:     35.500000      6.900000      2.500000, Make: null, ID: SZ3_DT_1/-1.60_1, Quantity: ADIABATIC SURFACE TEMPERATURE
    55 Coords:     35.500000      6.500000      2.500000, Make: null, ID: SZ3_DT_1/-2.00_1, Quantity: ADIABATIC SURFACE TEMPERATURE
    56 Coords:     35.500000      6.100000      2.500000, Make: null, ID: SZ3_DT_1/-2.40_1, Quantity: ADIABATIC SURFACE TEMPERATURE


 PLOT3D Information

   Sampling Interval (s)              30.0

   1 Quantity: TEMPERATURE
   2 Quantity: U-VELOCITY
   3 Quantity: V-VELOCITY
   4 Quantity: W-VELOCITY
   5 Quantity: VISIBILITY, Species: SOOT


 Slice File Information, Mesh     1

   Sampling Interval (s)             1.000

   1 Nodes:   0 164   0  60  12  12, Quantity: TEMPERATURE
   2 Nodes:   0 164   0  60  20  20, Quantity: TEMPERATURE


 Radiation Model Information

   Number of control angles  104
   Time step increment         3
   Angle increment             5
   Theta band N_phi   Solid angle
     1:        4     0.120
     2:       12     0.114
     3:       16     0.127
     4:       20     0.120
     5:       20     0.120
     6:       16     0.127
     7:       12     0.114
     8:        4     0.120
   Using gray gas absorption.
   Mean beam length  0.100 m
 
 

 Run Time Diagnostics

       Time Step       1   October 13, 2020  19:05:20
       Step Size:    0.112E+00 s, Total Time:       0.11 s
       Pressure Iterations:      1
       Maximum Velocity Error:  0.51E-02 on Mesh   2 at ( 143   0  17)
       Maximum Pressure Error:  0.56E-02 on Mesh   7 at ( 168   1  40)
       ---------------------------------------------------------------
       Mesh    1
       Max CFL number:  0.12E-01 at (  80,  50,  34)
       Max divergence:  0.25E-02 at (   8,  19,  34)
       Min divergence: -0.31E-03 at ( 121,  18,  36)
       Max VN number:   0.84E-02 at (  10,  51,  32)
       Radiation Loss to Boundaries:        47.272 kW
       Mesh    2
       Max CFL number:  0.11E-01 at ( 108,  34,  39)
       Max divergence:  0.44E-02 at (   8,   7,  11)
       Min divergence: -0.14E-02 at (  73,  31,  24)
       Max VN number:   0.84E-02 at ( 109,  48,   2)
       Radiation Loss to Boundaries:        46.376 kW
       Mesh    3
       Max CFL number:  0.11E-01 at (  20,  23,  20)
       Max divergence:  0.25E-02 at (   8,  42,  40)
       Min divergence: -0.30E-03 at ( 148,  11,  40)
       Max VN number:   0.85E-02 at ( 118,   2,  34)
       Radiation Loss to Boundaries:        53.737 kW
       Mesh    4
       Max CFL number:  0.11E-01 at (  26,  27,  20)
       Max divergence:  0.25E-02 at ( 160,  19,  34)
       Min divergence: -0.31E-03 at (   9,   1,  34)
       Max VN number:   0.81E-02 at ( 152,  45,  28)
       Radiation Loss to Boundaries:        51.259 kW
       Mesh    5
       Max CFL number:  0.11E-01 at (  40,  26,  28)
       Max divergence:  0.22E-02 at (  47,  29,  13)
       Min divergence: -0.16E-02 at (  71,  31,  24)
       Max VN number:   0.87E-02 at (  68,  18,  33)
       Radiation Loss to Boundaries:        23.447 kW
       Mesh    6
       Max CFL number:  0.11E-01 at (  20,  46,  35)
       Max divergence:  0.26E-02 at (  82,   8,  40)
       Min divergence: -0.14E-02 at (   5,  31,  24)
       Max VN number:   0.87E-02 at (  34,  54,  27)
       Radiation Loss to Boundaries:        16.255 kW
       Mesh    7
       Max CFL number:  0.11E-01 at (  27,  13,  14)
       Max divergence:  0.21E-02 at ( 146,  10,  39)
       Min divergence: -0.30E-03 at (  33,  11,  40)
       Max VN number:   0.85E-02 at (  84,  37,   7)
       Radiation Loss to Boundaries:        52.439 kW
 
       Time Step       2   October 13, 2020  19:05:22
       Step Size:    0.112E+00 s, Total Time:       0.22 s
       Pressure Iterations:      1
       Maximum Velocity Error:  0.27E-02 on Mesh   1 at (  38   0  36)
       Maximum Pressure Error:  0.44E-03 on Mesh   7 at (  97   8  39)
       ---------------------------------------------------------------
       Mesh    1
       Max CFL number:  0.12E-01 at (  80,  50,  35)
       Max divergence:  0.26E-02 at (   8,  19,  34)
       Min divergence: -0.31E-03 at ( 121,  18,  36)
       Max VN number:   0.84E-02 at ( 157,  12,  21)
       Radiation Loss to Boundaries:        47.257 kW
       Mesh    2
       Max CFL number:  0.12E-01 at ( 108,  34,  38)
       Max divergence:  0.66E-02 at (  71,  32,  22)
       Min divergence: -0.11E-02 at (  59,  31,  24)
       Max VN number:   0.83E-02 at ( 109,  48,   2)
       Radiation Loss to Boundaries:        46.361 kW
       Mesh    3
       Max CFL number:  0.11E-01 at (  63,  53,   3)
       Max divergence:  0.26E-02 at (   8,  42,  40)
       Min divergence: -0.30E-03 at ( 148,  11,  40)
       Max VN number:   0.85E-02 at ( 118,   2,  34)
       Radiation Loss to Boundaries:        53.720 kW
       Mesh    4
       Max CFL number:  0.11E-01 at (  26,  27,  20)
       Max divergence:  0.26E-02 at ( 160,  19,  34)
       Min divergence: -0.31E-03 at (   9,   1,  34)
       Max VN number:   0.80E-02 at ( 152,  45,  28)
       Radiation Loss to Boundaries:        51.243 kW
       Mesh    5
       Max CFL number:  0.11E-01 at (  40,  26,  28)
       Max divergence:  0.56E-02 at (  71,  32,  22)
       Min divergence: -0.10E-02 at (  46,  31,  24)
       Max VN number:   0.86E-02 at (  68,  18,  33)
       Radiation Loss to Boundaries:        23.440 kW
       Mesh    6
       Max CFL number:  0.11E-01 at (  20,  46,  35)
       Max divergence:  0.59E-02 at (  20,  32,  21)
       Min divergence: -0.12E-02 at (  18,  31,  24)
       Max VN number:   0.87E-02 at (  34,  54,  27)
       Radiation Loss to Boundaries:        16.249 kW
       Mesh    7
       Max CFL number:  0.11E-01 at (  27,  13,  14)
       Max divergence:  0.39E-01 at (  12,  46,   9)
       Min divergence: -0.31E-03 at (  33,  11,  40)
       Max VN number:   0.85E-02 at (  84,  37,   7)
       Total Heat Release Rate:              3.202 kW
       Radiation Loss to Boundaries:        52.422 kW
 
       Time Step       3   October 13, 2020  19:05:25
       Step Size:    0.112E+00 s, Total Time:       0.34 s
       Pressure Iterations:      1
       Maximum Velocity Error:  0.27E-02 on Mesh   3 at (  33  61  28)
       Maximum Pressure Error:  0.12E-02 on Mesh   2 at (   8   7  40)
       ---------------------------------------------------------------
       Mesh    1
       Max CFL number:  0.12E-01 at (  80,  50,  35)
       Max divergence:  0.26E-02 at (   8,  19,  34)
       Min divergence: -0.31E-03 at ( 148,   4,  36)
       Max VN number:   0.84E-02 at ( 157,  12,  21)
       Radiation Loss to Boundaries:        47.920 kW
       Mesh    2
       Max CFL number:  0.11E-01 at ( 108,  34,  38)
       Max divergence:  0.65E-02 at (  71,  32,  22)
       Min divergence: -0.11E-02 at (  59,  31,  24)
       Max VN number:   0.83E-02 at ( 109,  48,   2)
       Radiation Loss to Boundaries:        48.419 kW
       Mesh    3
       Max CFL number:  0.11E-01 at (  63,  53,   3)
       Max divergence:  0.25E-02 at (   8,  42,  40)
       Min divergence: -0.30E-03 at ( 148,  20,  15)
       Max VN number:   0.84E-02 at ( 118,   2,  34)
       Radiation Loss to Boundaries:        56.264 kW
       Mesh    4
       Max CFL number:  0.11E-01 at (  26,  27,  20)
       Max divergence:  0.26E-02 at ( 160,  19,  34)
       Min divergence: -0.31E-03 at (  73,   4,  36)
       Max VN number:   0.80E-02 at ( 152,  45,  28)
       Radiation Loss to Boundaries:        53.433 kW
       Mesh    5
       Max CFL number:  0.11E-01 at (  40,  26,  28)
       Max divergence:  0.55E-02 at (  71,  32,  22)
       Min divergence: -0.10E-02 at (  46,  31,  24)
       Max VN number:   0.86E-02 at (  68,  18,  33)
       Radiation Loss to Boundaries:        25.319 kW
       Mesh    6
       Max CFL number:  0.11E-01 at (  20,  46,  35)
       Max divergence:  0.56E-02 at (  20,  32,  21)
       Min divergence: -0.12E-02 at (  18,  31,  24)
       Max VN number:   0.87E-02 at (  34,  54,  27)
       Radiation Loss to Boundaries:        17.794 kW
       Mesh    7
       Max CFL number:  0.12E-01 at (   9,  42,   9)
       Max divergence:  0.26E-01 at (  13,  42,   9)
       Min divergence: -0.31E-03 at (  33,  11,  40)
       Max VN number:   0.84E-02 at (  84,  37,   7)
       Total Heat Release Rate:              2.154 kW
       Radiation Loss to Boundaries:        54.264 kW
 
       Time Step       4   October 13, 2020  19:05:27
       Step Size:    0.112E+00 s, Total Time:       0.45 s
       Pressure Iterations:      1
       Maximum Velocity Error:  0.38E-02 on Mesh   7 at (  12  46   8)
       Maximum Pressure Error:  0.45E-01 on Mesh   7 at (  12  46   9)
       ---------------------------------------------------------------
       Mesh    1
       Max CFL number:  0.12E-01 at (  80,  50,  34)
       Max divergence:  0.32E-02 at (   8,  19,  34)
       Min divergence: -0.31E-03 at ( 148,   4,  36)
       Max VN number:   0.84E-02 at ( 157,  12,  21)
       Radiation Loss to Boundaries:        47.904 kW
       Mesh    2
       Max CFL number:  0.11E-01 at ( 108,  34,  39)
       Max divergence:  0.61E-02 at (  71,  32,  22)
       Min divergence: -0.13E-02 at (  59,  32,  21)
       Max VN number:   0.83E-02 at ( 109,  48,   2)
       Radiation Loss to Boundaries:        48.403 kW
       Mesh    3
       Max CFL number:  0.11E-01 at (  63,  53,   3)
       Max divergence:  0.31E-02 at (   8,  42,  40)
       Min divergence: -0.30E-03 at ( 148,  20,  15)
       Max VN number:   0.84E-02 at ( 118,   2,  34)
       Radiation Loss to Boundaries:        56.246 kW
       Mesh    4
       Max CFL number:  0.11E-01 at (  26,  27,  20)
       Max divergence:  0.32E-02 at ( 160,  19,  34)
       Min divergence: -0.31E-03 at (  73,   4,  36)
       Max VN number:   0.80E-02 at ( 152,  45,  28)
       Radiation Loss to Boundaries:        53.416 kW
       Mesh    5
       Max CFL number:  0.11E-01 at (  40,  26,  28)
       Max divergence:  0.54E-02 at (  71,  32,  22)
       Min divergence: -0.13E-02 at (  60,  32,  21)
       Max VN number:   0.86E-02 at (  68,  18,  33)
       Radiation Loss to Boundaries:        25.311 kW
       Mesh    6
       Max CFL number:  0.11E-01 at (  20,  46,  35)
       Max divergence:  0.45E-02 at (  20,  31,  24)
       Min divergence: -0.12E-02 at (  18,  31,  24)
       Max VN number:   0.86E-02 at (  34,  54,  27)
       Radiation Loss to Boundaries:        17.788 kW
       Mesh    7
       Max CFL number:  0.12E-01 at (   9,  42,   9)
       Max divergence:  0.10E+00 at (  12,  46,   9)
       Min divergence: -0.31E-03 at (  33,  11,  40)
       Max VN number:   0.84E-02 at (  84,  37,   7)
       Total Heat Release Rate:             13.073 kW
       Radiation Loss to Boundaries:        54.245 kW
 
       Time Step       5   October 13, 2020  19:05:29
       Step Size:    0.112E+00 s, Total Time:       0.56 s
       Pressure Iterations:      1
       Maximum Velocity Error:  0.72E-02 on Mesh   7 at (  12  46   8)
       Maximum Pressure Error:  0.73E-01 on Mesh   7 at (  12  46   9)
       ---------------------------------------------------------------
       Mesh    1
       Max CFL number:  0.12E-01 at (  80,  50,  34)
       Max divergence:  0.32E-02 at (   8,  19,  34)
       Min divergence: -0.31E-03 at ( 148,   4,  36)
       Max VN number:   0.84E-02 at ( 157,  12,  21)
       Radiation Loss to Boundaries:        47.889 kW
       Mesh    2
       Max CFL number:  0.11E-01 at ( 108,  34,  39)
       Max divergence:  0.61E-02 at (  71,  32,  22)
       Min divergence: -0.13E-02 at (  59,  32,  21)
       Max VN number:   0.83E-02 at ( 109,  48,   2)
       Radiation Loss to Boundaries:        48.387 kW
       Mesh    3
       Max CFL number:  0.11E-01 at (  63,  53,   3)
       Max divergence:  0.31E-02 at (   8,  42,  40)
       Min divergence: -0.30E-03 at ( 148,  20,  15)
       Max VN number:   0.84E-02 at ( 118,   2,  34)
       Radiation Loss to Boundaries:        56.227 kW
       Mesh    4
       Max CFL number:  0.11E-01 at (  26,  27,  20)
       Max divergence:  0.32E-02 at ( 160,  19,  34)
       Min divergence: -0.31E-03 at (  73,   4,  36)
       Max VN number:   0.80E-02 at ( 152,  45,  28)
       Radiation Loss to Boundaries:        53.399 kW
       Mesh    5
       Max CFL number:  0.11E-01 at (  40,  26,  28)
       Max divergence:  0.54E-02 at (  71,  32,  22)
       Min divergence: -0.13E-02 at (  60,  32,  21)
       Max VN number:   0.85E-02 at (  68,  18,  33)
       Radiation Loss to Boundaries:        25.302 kW
       Mesh    6
       Max CFL number:  0.11E-01 at (  20,  46,  35)
       Max divergence:  0.45E-02 at (  20,  31,  24)
       Min divergence: -0.12E-02 at (  18,  31,  24)
       Max VN number:   0.86E-02 at (  34,  54,  27)
       Radiation Loss to Boundaries:        17.781 kW
       Mesh    7
       Max CFL number:  0.22E-01 at (  12,  46,   9)
       Max divergence:  0.24E-01 at (  13,  42,   9)
       Min divergence: -0.18E-02 at (  12,  46,   9)
       Max VN number:   0.84E-02 at (  84,  37,   7)
       Total Heat Release Rate:              0.560 kW
       Radiation Loss to Boundaries:        54.224 kW
 
       Time Step       6   October 13, 2020  19:05:32
       Step Size:    0.112E+00 s, Total Time:       0.67 s
       Pressure Iterations:      1
       Maximum Velocity Error:  0.23E-01 on Mesh   7 at (  12  46   8)
       Maximum Pressure Error:  0.56E+00 on Mesh   7 at (  12  46   9)
       ---------------------------------------------------------------
       Mesh    1
       Max CFL number:  0.12E-01 at (  80,  50,  34)
       Max divergence:  0.35E-02 at (   8,  19,  34)
       Min divergence: -0.32E-03 at ( 111,   4,  22)
       Max VN number:   0.84E-02 at ( 157,  12,  21)
       Radiation Loss to Boundaries:        47.497 kW
       Mesh    2
       Max CFL number:  0.11E-01 at ( 108,  34,  39)
       Max divergence:  0.58E-02 at (  71,  32,  22)
       Min divergence: -0.13E-02 at (  59,  32,  21)
       Max VN number:   0.83E-02 at ( 109,  48,   2)
       Radiation Loss to Boundaries:        47.538 kW
       Mesh    3
       Max CFL number:  0.11E-01 at (  63,  53,   3)
       Max divergence:  0.35E-02 at (   8,  42,  40)
       Min divergence: -0.31E-03 at (  71,  53,  29)
       Max VN number:   0.84E-02 at ( 118,   2,  34)
       Radiation Loss to Boundaries:        56.403 kW
       Mesh    4
       Max CFL number:  0.11E-01 at (  26,  27,  20)
       Max divergence:  0.35E-02 at ( 160,  19,  34)
       Min divergence: -0.32E-03 at (  60,  10,  22)
       Max VN number:   0.80E-02 at ( 152,  45,  28)
       Radiation Loss to Boundaries:        53.868 kW
       Mesh    5
       Max CFL number:  0.11E-01 at (  40,  26,  28)
       Max divergence:  0.52E-02 at (  71,  32,  22)
       Min divergence: -0.13E-02 at (  60,  32,  21)
       Max VN number:   0.85E-02 at (  68,  18,  33)
       Radiation Loss to Boundaries:        26.013 kW
       Mesh    6
       Max CFL number:  0.11E-01 at (  20,  46,  35)
       Max divergence:  0.44E-02 at (  20,  31,  24)
       Min divergence: -0.12E-02 at (  18,  31,  24)
       Max VN number:   0.86E-02 at (  34,  54,  27)
       Radiation Loss to Boundaries:        18.789 kW
       Mesh    7
       Max CFL number:  0.11E-01 at (   6,  45,   9)
       Max divergence:  0.35E+00 at (  12,  46,   9)
       Min divergence: -0.31E-03 at (  20,  34,  40)
       Max VN number:   0.84E-02 at (  84,  37,   7)
       Total Heat Release Rate:             69.543 kW
       Radiation Loss to Boundaries:        50.047 kW
 
       Time Step       7   October 13, 2020  19:05:34
       Step Size:    0.112E+00 s, Total Time:       0.78 s
       Pressure Iterations:      1
       Maximum Velocity Error:  0.27E-01 on Mesh   7 at (  12  46   8)
       Maximum Pressure Error:  0.84E+00 on Mesh   7 at (  12  46   9)
       ---------------------------------------------------------------
       Mesh    1
       Max CFL number:  0.12E-01 at (  80,  50,  34)
       Max divergence:  0.35E-02 at (   8,  19,  34)
       Min divergence: -0.31E-03 at ( 111,   4,  22)
       Max VN number:   0.83E-02 at ( 157,  12,  21)
       Radiation Loss to Boundaries:        47.481 kW
       Mesh    2
       Max CFL number:  0.12E-01 at ( 111,  32,  19)
       Max divergence:  0.51E-02 at (   8,   7,  27)
       Min divergence: -0.14E-02 at (  59,  32,  21)
       Max VN number:   0.82E-02 at ( 109,  48,   2)
       Radiation Loss to Boundaries:        47.521 kW
       Mesh    3
       Max CFL number:  0.11E-01 at (  63,  53,   3)
       Max divergence:  0.35E-02 at (   8,  42,  40)
       Min divergence: -0.30E-03 at (  71,  53,  29)
       Max VN number:   0.84E-02 at ( 118,   2,  34)
       Radiation Loss to Boundaries:        56.384 kW
       Mesh    4
       Max CFL number:  0.11E-01 at (  26,  27,  20)
       Max divergence:  0.35E-02 at ( 160,  19,  34)
       Min divergence: -0.31E-03 at (  60,  10,  22)
       Max VN number:   0.80E-02 at ( 152,  45,  28)
       Radiation Loss to Boundaries:        53.850 kW
       Mesh    5
       Max CFL number:  0.11E-01 at (  40,  26,  28)
       Max divergence:  0.44E-02 at (  71,  32,  22)
       Min divergence: -0.14E-02 at (  60,  32,  22)
       Max VN number:   0.85E-02 at (  68,  18,  33)
       Radiation Loss to Boundaries:        26.004 kW
       Mesh    6
       Max CFL number:  0.11E-01 at (  20,  46,  35)
       Max divergence:  0.40E-02 at (  20,  31,  24)
       Min divergence: -0.13E-02 at (  31,  32,  21)
       Max VN number:   0.86E-02 at (  34,  54,  27)
       Radiation Loss to Boundaries:        18.781 kW
       Mesh    7
       Max CFL number:  0.66E-01 at (  12,  46,   9)
       Max divergence:  0.16E-01 at (  12,  46,  10)
       Min divergence: -0.16E-01 at (  12,  46,   9)
       Max VN number:   0.93E-02 at (   9,  53,  10)
       Radiation Loss to Boundaries:        55.182 kW
 
       Time Step       8   October 13, 2020  19:05:36
       Step Size:    0.112E+00 s, Total Time:       0.89 s
       Pressure Iterations:      2
       Maximum Velocity Error:  0.44E-01 on Mesh   7 at (   9  48  12)
       Maximum Pressure Error:  0.51E+01 on Mesh   7 at (  12  46   9)
       ---------------------------------------------------------------
       Mesh    1
       Max CFL number:  0.12E-01 at (  80,  50,  34)
       Max divergence:  0.38E-02 at (   8,  19,  34)
       Min divergence: -0.35E-03 at ( 111,   4,  22)
       Max VN number:   0.83E-02 at ( 157,  12,  21)
       Radiation Loss to Boundaries:        47.465 kW
       Mesh    2
       Max CFL number:  0.13E-01 at ( 111,  32,  19)
       Max divergence:  0.57E-02 at (   8,   7,  27)
       Min divergence: -0.15E-02 at (  59,  32,  21)
       Max VN number:   0.82E-02 at ( 109,  48,   2)
       Radiation Loss to Boundaries:        47.506 kW
       Mesh    3
       Max CFL number:  0.11E-01 at (  63,  53,   3)
       Max divergence:  0.37E-02 at (   8,  42,  40)
       Min divergence: -0.35E-03 at (  71,  53,  29)
       Max VN number:   0.84E-02 at ( 118,   2,  34)
       Radiation Loss to Boundaries:        56.366 kW
       Mesh    4
       Max CFL number:  0.11E-01 at (  26,  27,  20)
       Max divergence:  0.38E-02 at ( 160,  19,  34)
       Min divergence: -0.35E-03 at (  60,  10,  22)
       Max VN number:   0.80E-02 at ( 152,  45,  28)
       Radiation Loss to Boundaries:        53.833 kW
       Mesh    5
       Max CFL number:  0.11E-01 at (  40,  26,  28)
       Max divergence:  0.43E-02 at (  71,  32,  22)
       Min divergence: -0.14E-02 at (  60,  32,  22)
       Max VN number:   0.84E-02 at (  68,  18,  33)
       Radiation Loss to Boundaries:        25.996 kW
       Mesh    6
       Max CFL number:  0.11E-01 at (  20,  46,  35)
       Max divergence:  0.40E-02 at (  20,  31,  24)
       Min divergence: -0.13E-02 at (  31,  32,  21)
       Max VN number:   0.86E-02 at (  34,  54,  27)
       Radiation Loss to Boundaries:        18.774 kW
       Mesh    7
       Max CFL number:  0.24E-01 at (  12,  46,   9)
       Max divergence:  0.13E+01 at (   9,  50,   9)
       Min divergence: -0.34E-03 at (  71,  57,  15)
       Max VN number:   0.92E-02 at (  14,  42,   9)
       Total Heat Release Rate:            262.527 kW
       Radiation Loss to Boundaries:        37.941 kW
 
       Time Step       9   October 13, 2020  19:05:39
       Step Size:    0.112E+00 s, Total Time:       1.01 s
       Pressure Iterations:      3
       Maximum Velocity Error:  0.34E-01 on Mesh   7 at (  10  48  12)
       Maximum Pressure Error:  0.62E+01 on Mesh   7 at (  12  47   9)
       ---------------------------------------------------------------
       Mesh    1
       Max CFL number:  0.12E-01 at (  80,  50,  34)
       Max divergence:  0.38E-02 at (   8,  19,  34)
       Min divergence: -0.30E-03 at ( 111,  11,  22)
       Max VN number:   0.83E-02 at ( 157,  12,  21)
       Radiation Loss to Boundaries:        47.392 kW
       Mesh    2
       Max CFL number:  0.14E-01 at (   8,   7,  11)
       Max divergence:  0.57E-02 at (   8,   7,  27)
       Min divergence: -0.14E-02 at (  59,  32,  21)
       Max VN number:   0.82E-02 at ( 109,  48,   2)
       Radiation Loss to Boundaries:        46.339 kW
       Mesh    3
       Max CFL number:  0.11E-01 at (  63,  53,   3)
       Max divergence:  0.38E-02 at (   8,  42,  40)
       Min divergence: -0.30E-03 at ( 148,  39,  28)
       Max VN number:   0.83E-02 at ( 118,   2,  34)
       Radiation Loss to Boundaries:        56.294 kW
       Mesh    4
       Max CFL number:  0.11E-01 at (  26,  27,  20)
       Max divergence:  0.38E-02 at ( 160,  19,  34)
       Min divergence: -0.31E-03 at (  60,   9,  22)
       Max VN number:   0.80E-02 at ( 152,  45,  28)
       Radiation Loss to Boundaries:        53.973 kW
       Mesh    5
       Max CFL number:  0.11E-01 at (  40,  26,  29)
       Max divergence:  0.41E-02 at (  71,  32,  22)
       Min divergence: -0.14E-02 at (  60,  32,  22)
       Max VN number:   0.84E-02 at (  68,  18,  33)
       Radiation Loss to Boundaries:        26.295 kW
       Mesh    6
       Max CFL number:  0.12E-01 at (   7,  32,  20)
       Max divergence:  0.39E-02 at (  20,  31,  24)
       Min divergence: -0.13E-02 at (  31,  32,  21)
       Max VN number:   0.86E-02 at (  34,  54,  27)
       Radiation Loss to Boundaries:        19.384 kW
       Mesh    7
       Max CFL number:  0.20E+00 at (   9,  50,   9)
       Max divergence:  0.73E-01 at (   9,  49,  10)
       Min divergence: -0.74E-01 at (   9,  49,   9)
       Max VN number:   0.20E-01 at (  12,  46,  10)
       Total Heat Release Rate:              0.005 kW
       Radiation Loss to Boundaries:        56.159 kW
 
       Time Step      10   October 13, 2020  19:05:41
       Step Size:    0.112E+00 s, Total Time:       1.12 s
       Pressure Iterations:      2
       Maximum Velocity Error:  0.35E-01 on Mesh   7 at (   9  49   8)
       Maximum Pressure Error:  0.21E+01 on Mesh   7 at (   8  49   9)
       ---------------------------------------------------------------
       Mesh    1
       Max CFL number:  0.12E-01 at (  80,  50,  34)
       Max divergence:  0.40E-02 at (   8,  19,  34)
       Min divergence: -0.32E-03 at ( 111,  11,  22)
       Max VN number:   0.83E-02 at ( 157,  12,  21)
       Radiation Loss to Boundaries:        47.377 kW
       Mesh    2
       Max CFL number:  0.17E-01 at (   8,   7,  11)
       Max divergence:  0.61E-02 at (   8,   7,  27)
       Min divergence: -0.14E-02 at (  59,  32,  21)
       Max VN number:   0.82E-02 at ( 109,  48,   2)
       Radiation Loss to Boundaries:        46.324 kW
       Mesh    3
       Max CFL number:  0.12E-01 at ( 163,  49,  12)
       Max divergence:  0.40E-02 at (   8,  42,  40)
       Min divergence: -0.32E-03 at ( 148,  39,  28)
       Max VN number:   0.83E-02 at ( 122,   3,   3)
       Radiation Loss to Boundaries:        56.276 kW
       Mesh    4
       Max CFL number:  0.11E-01 at ( 160,  10,  19)
       Max divergence:  0.40E-02 at ( 160,  19,  34)
       Min divergence: -0.32E-03 at (  60,   9,  22)
       Max VN number:   0.79E-02 at ( 152,  45,  28)
       Radiation Loss to Boundaries:        53.956 kW
       Mesh    5
       Max CFL number:  0.12E-01 at (  35,  32,  19)
       Max divergence:  0.41E-02 at (   8,  32,  22)
       Min divergence: -0.14E-02 at (  60,  32,  22)
       Max VN number:   0.84E-02 at (  68,  18,  33)
       Radiation Loss to Boundaries:        26.286 kW
       Mesh    6
       Max CFL number:  0.13E-01 at (   7,  32,  20)
       Max divergence:  0.39E-02 at (  82,   7,  40)
       Min divergence: -0.14E-02 at (  18,  32,  22)
       Max VN number:   0.85E-02 at (  34,  54,  27)
       Radiation Loss to Boundaries:        19.377 kW
       Mesh    7
       Max CFL number:  0.47E-01 at (  12,  46,   9)
       Max divergence:  0.13E+01 at (   9,  49,   9)
       Min divergence: -0.32E-03 at ( 159,  21,  40)
       Max VN number:   0.20E-01 at (   6,  41,  11)
       Total Heat Release Rate:            139.156 kW
       Radiation Loss to Boundaries:        15.620 kW
 
       Time Step      20   October 13, 2020  19:06:06
       Step Size:    0.112E+00 s, Total Time:       2.24 s
       Pressure Iterations:      2
       Maximum Velocity Error:  0.15E-01 on Mesh   7 at (   8  44   8)
       Maximum Pressure Error:  0.49E+01 on Mesh   7 at (   8  44   9)
       ---------------------------------------------------------------
       Mesh    1
       Max CFL number:  0.23E-01 at (   8,  19,  20)
       Max divergence:  0.46E-02 at (   8,  19,  34)
       Min divergence: -0.32E-03 at ( 146,   2,  22)
       Max VN number:   0.99E-02 at (  34,  19,  19)
       Radiation Loss to Boundaries:        47.598 kW
       Mesh    2
       Max CFL number:  0.54E-01 at (   8,   7,  11)
       Max divergence:  0.73E-02 at (   8,   7,  40)
       Min divergence: -0.15E-02 at (  71,  32,  22)
       Max VN number:   0.99E-02 at (   7,   7,  13)
       Radiation Loss to Boundaries:        42.419 kW
       Mesh    3
       Max CFL number:  0.21E-01 at (  97,   9,  13)
       Max divergence:  0.46E-02 at (   8,  42,  40)
       Min divergence: -0.32E-03 at (  23,  59,  15)
       Max VN number:   0.92E-02 at (  84,  42,  26)
       Radiation Loss to Boundaries:        55.499 kW
       Mesh    4
       Max CFL number:  0.21E-01 at ( 160,  16,  20)
       Max divergence:  0.46E-02 at ( 160,  19,  20)
       Min divergence: -0.31E-03 at (  60,  11,  36)
       Max VN number:   0.90E-02 at (  84,  19,  33)
       Radiation Loss to Boundaries:        54.445 kW
       Mesh    5
       Max CFL number:  0.27E-01 at (  10,  32,  20)
       Max divergence:  0.40E-02 at (  47,  30,  13)
       Min divergence: -0.14E-02 at (  58,  32,  21)
       Max VN number:   0.82E-02 at (  35,  33,  18)
       Radiation Loss to Boundaries:        24.283 kW
       Mesh    6
       Max CFL number:  0.32E-01 at (  20,  32,  20)
       Max divergence:  0.47E-02 at (  82,   7,  40)
       Min divergence: -0.14E-02 at (  20,  32,  22)
       Max VN number:   0.88E-02 at (  82,   9,  12)
       Radiation Loss to Boundaries:        20.408 kW
       Mesh    7
       Max CFL number:  0.31E+00 at (   9,  49,   9)
       Max divergence:  0.74E+00 at (   8,  44,   9)
       Min divergence: -0.18E+00 at (  10,  47,  10)
       Max VN number:   0.15E+00 at (  10,  47,  10)
       Total Heat Release Rate:            137.213 kW
       Radiation Loss to Boundaries:        17.002 kW
 
       Time Step      30   October 13, 2020  19:06:30
       Step Size:    0.112E+00 s, Total Time:       3.35 s
       Pressure Iterations:      1
       Maximum Velocity Error:  0.33E-01 on Mesh   7 at (   7  51  12)
       Maximum Pressure Error:  0.28E+01 on Mesh   7 at (  10  51   9)
       ---------------------------------------------------------------
       Mesh    1
       Max CFL number:  0.43E-01 at (   8,  19,  20)
       Max divergence:  0.48E-02 at (   8,  19,  34)
       Min divergence: -0.32E-03 at ( 161,  14,  22)
       Max VN number:   0.17E-01 at (   8,  19,  19)
       Radiation Loss to Boundaries:        45.310 kW
       Mesh    2
       Max CFL number:  0.11E+00 at (   8,   7,  11)
       Max divergence:  0.73E-02 at (   8,   7,  40)
       Min divergence: -0.14E-02 at (  83,  32,  22)
       Max VN number:   0.30E-01 at (   8,   7,  13)
       Radiation Loss to Boundaries:        43.558 kW
       Mesh    3
       Max CFL number:  0.39E-01 at (  97,   9,  13)
       Max divergence:  0.49E-02 at (   8,  42,  40)
       Min divergence: -0.32E-03 at ( 161,  49,  29)
       Max VN number:   0.17E-01 at (   8,  42,  39)
       Radiation Loss to Boundaries:        52.283 kW
       Mesh    4
       Max CFL number:  0.41E-01 at ( 160,  19,  34)
       Max divergence:  0.48E-02 at ( 160,  19,  34)
       Min divergence: -0.33E-03 at (   8,  11,  22)
       Max VN number:   0.16E-01 at (  84,  19,  33)
       Radiation Loss to Boundaries:        51.525 kW
       Mesh    5
       Max CFL number:  0.56E-01 at (  10,  32,  20)
       Max divergence:  0.43E-02 at (  47,  30,  13)
       Min divergence: -0.16E-02 at (   8,  32,  22)
       Max VN number:   0.13E-01 at (  48,  33,  19)
       Radiation Loss to Boundaries:        19.093 kW
       Mesh    6
       Max CFL number:  0.62E-01 at (  20,  32,  20)
       Max divergence:  0.50E-02 at (  82,   7,  40)
       Min divergence: -0.15E-02 at (   5,  32,  22)
       Max VN number:   0.13E-01 at (   7,  33,  20)
       Radiation Loss to Boundaries:        17.369 kW
       Mesh    7
       Max CFL number:  0.72E+00 at (   8,  44,   9)
       Max divergence:  0.74E+00 at (  11,  46,   9)
       Min divergence: -0.60E+00 at (   8,  44,  10)
       Max VN number:   0.47E+00 at (   8,  44,   9)
       Total Heat Release Rate:            193.026 kW
       Radiation Loss to Boundaries:         1.279 kW
 
       Time Step      40   October 13, 2020  19:06:54
       Step Size:    0.977E-01 s, Total Time:       4.42 s
       Pressure Iterations:      1
       Maximum Velocity Error:  0.42E-01 on Mesh   3 at ( 165  48  11)
       Maximum Pressure Error:  0.41E+01 on Mesh   7 at (  11  49   9)
       ---------------------------------------------------------------
       Mesh    1
       Max CFL number:  0.56E-01 at (   8,  19,  20)
       Max divergence:  0.50E-02 at (   8,  19,  20)
       Min divergence: -0.33E-03 at (  23,   5,  22)
       Max VN number:   0.22E-01 at (   8,  19,  33)
       Radiation Loss to Boundaries:        45.546 kW
       Mesh    2
       Max CFL number:  0.17E+00 at (   8,   7,  27)
       Max divergence:  0.72E-02 at (   8,   7,  40)
       Min divergence: -0.14E-02 at (  83,  32,  21)
       Max VN number:   0.75E-01 at (   8,   7,  27)
       Radiation Loss to Boundaries:        45.472 kW
       Mesh    3
       Max CFL number:  0.42E+00 at ( 164,  49,  11)
       Max divergence:  0.18E-01 at ( 164,  44,  11)
       Min divergence: -0.33E-03 at (  59,  53,  15)
       Max VN number:   0.90E-01 at ( 164,  49,  11)
       Radiation Loss to Boundaries:        51.567 kW
       Mesh    4
       Max CFL number:  0.56E-01 at ( 160,   6,  20)
       Max divergence:  0.49E-02 at ( 160,  19,  34)
       Min divergence: -0.34E-03 at (   8,   2,  35)
       Max VN number:   0.21E-01 at ( 160,  19,  19)
       Radiation Loss to Boundaries:        51.616 kW
       Mesh    5
       Max CFL number:  0.78E-01 at (  10,  32,  20)
       Max divergence:  0.43E-02 at (  59,  30,  13)
       Min divergence: -0.15E-02 at (  58,  32,  21)
       Max VN number:   0.21E-01 at (   8,  32,  22)
       Radiation Loss to Boundaries:        23.024 kW
       Mesh    6
       Max CFL number:  0.85E-01 at (  20,  32,  20)
       Max divergence:  0.50E-02 at (  82,   7,  40)
       Min divergence: -0.14E-02 at (  18,  32,  21)
       Max VN number:   0.23E-01 at (  20,  32,  22)
       Radiation Loss to Boundaries:        18.739 kW
       Mesh    7
       Max CFL number:  0.95E+00 at (  14,  49,  11)
       Max divergence:  0.11E+01 at (   7,  45,   9)
       Min divergence: -0.52E+00 at (  10,  50,  10)
       Max VN number:   0.44E+00 at (   7,  45,   9)
       Total Heat Release Rate:            253.155 kW
       Radiation Loss to Boundaries:       -17.651 kW
 
       Time Step      50   October 13, 2020  19:07:20
       Step Size:    0.756E-01 s, Total Time:       5.27 s
       Pressure Iterations:      2
       Maximum Velocity Error:  0.19E-01 on Mesh   3 at ( 165  48  11)
       Maximum Pressure Error:  0.46E+01 on Mesh   7 at (  10  49   9)
       ---------------------------------------------------------------
       Mesh    1
       Max CFL number:  0.56E-01 at ( 122,  52,  19)
       Max divergence:  0.52E-02 at (   8,  19,  20)
       Min divergence: -0.33E-03 at ( 161,   1,  36)
       Max VN number:   0.20E-01 at (   8,  19,  33)
       Radiation Loss to Boundaries:        46.882 kW
       Mesh    2
       Max CFL number:  0.18E+00 at (   8,   7,  27)
       Max divergence:  0.75E-02 at (   8,   7,  40)
       Min divergence: -0.21E-02 at ( 159,  32,  21)
       Max VN number:   0.94E-01 at (   8,   7,  27)
       Radiation Loss to Boundaries:        45.437 kW
       Mesh    3
       Max CFL number:  0.45E+00 at ( 164,  48,  12)
       Max divergence:  0.42E-01 at ( 164,  50,  12)
       Min divergence: -0.65E-01 at ( 163,  44,  11)
       Max VN number:   0.19E+00 at ( 163,  48,  11)
       Total Heat Release Rate:              0.003 kW
       Radiation Loss to Boundaries:        51.384 kW
       Mesh    4
       Max CFL number:  0.57E-01 at ( 160,   6,  20)
       Max divergence:  0.51E-02 at ( 160,  19,  34)
       Min divergence: -0.35E-03 at (   8,   1,  21)
       Max VN number:   0.21E-01 at ( 160,  19,  19)
       Radiation Loss to Boundaries:        51.657 kW
       Mesh    5
       Max CFL number:  0.30E+00 at (   9,   1,  11)
       Max divergence:  0.31E-01 at (   9,   1,  13)
       Min divergence: -0.71E-01 at (   9,   1,  11)
       Max VN number:   0.13E+00 at (   9,   1,  11)
       Radiation Loss to Boundaries:        26.130 kW
       Mesh    6
       Max CFL number:  0.84E-01 at (  20,  32,  20)
       Max divergence:  0.51E-02 at (  82,   7,  40)
       Min divergence: -0.20E-02 at (  18,  32,  21)
       Max VN number:   0.38E-01 at (  20,  32,  22)
       Radiation Loss to Boundaries:        20.470 kW
       Mesh    7
       Max CFL number:  0.90E+00 at (   4,  48,  11)
       Max divergence:  0.11E+01 at (  11,  49,   9)
       Min divergence: -0.59E+00 at (   9,  47,  10)
       Max VN number:   0.42E+00 at (   4,  48,  11)
       Total Heat Release Rate:            308.635 kW
       Radiation Loss to Boundaries:       -33.215 kW
 
       Time Step      60   October 13, 2020  19:07:45
       Step Size:    0.915E-01 s, Total Time:       6.07 s
       Pressure Iterations:      2
       Maximum Velocity Error:  0.26E-01 on Mesh   7 at (   0  47  14)
       Maximum Pressure Error:  0.58E+01 on Mesh   7 at (   6  48  10)
       ---------------------------------------------------------------
       Mesh    1
       Max CFL number:  0.81E-01 at ( 122,  52,  19)
       Max divergence:  0.54E-02 at (   8,  19,  20)
       Min divergence: -0.58E-03 at ( 109,  52,  33)
       Max VN number:   0.32E-01 at (   8,   8,  19)
       Radiation Loss to Boundaries:        45.604 kW
       Mesh    2
       Max CFL number:  0.25E+00 at (   8,   7,  27)
       Max divergence:  0.78E-02 at (   8,   7,  40)
       Min divergence: -0.27E-02 at ( 159,  32,  21)
       Max VN number:   0.14E+00 at (   8,   7,  27)
       Radiation Loss to Boundaries:        43.064 kW
       Mesh    3
       Max CFL number:  0.67E+00 at ( 162,  48,  15)
       Max divergence:  0.11E+00 at ( 161,  47,  15)
       Min divergence: -0.16E+00 at ( 163,  48,  15)
       Max VN number:   0.52E+00 at ( 163,  48,  15)
       Total Heat Release Rate:              0.004 kW
       Radiation Loss to Boundaries:        51.981 kW
       Mesh    4
       Max CFL number:  0.82E-01 at ( 160,  52,  33)
       Max divergence:  0.54E-02 at ( 160,  19,  34)
       Min divergence: -0.59E-03 at (  46,  52,  19)
       Max VN number:   0.32E-01 at ( 160,   6,  19)
       Radiation Loss to Boundaries:        52.002 kW
       Mesh    5
       Max CFL number:  0.40E+00 at (   8,   1,  15)
       Max divergence:  0.21E-01 at (  10,   1,  15)
       Min divergence: -0.35E-01 at (   9,   2,  13)
       Max VN number:   0.33E+00 at (   9,   1,  13)
       Radiation Loss to Boundaries:        24.720 kW
       Mesh    6
       Max CFL number:  0.11E+00 at (  20,  32,  22)
       Max divergence:  0.53E-02 at (  82,   7,  40)
       Min divergence: -0.24E-02 at (  18,  32,  21)
       Max VN number:   0.68E-01 at (  20,  32,  22)
       Radiation Loss to Boundaries:        19.431 kW
       Mesh    7
       Max CFL number:  0.87E+00 at (  14,  53,  11)
       Max divergence:  0.20E+01 at (   8,  51,   9)
       Min divergence: -0.61E+00 at (   8,  51,  10)
       Max VN number:   0.55E+00 at (   5,  48,  10)
       Total Heat Release Rate:            349.732 kW
       Radiation Loss to Boundaries:       -43.029 kW
 
       Time Step      70   October 13, 2020  19:08:09
       Step Size:    0.915E-01 s, Total Time:       6.99 s
       Pressure Iterations:      2
       Maximum Velocity Error:  0.18E-01 on Mesh   7 at (  21  58  15)
       Maximum Pressure Error:  0.39E+01 on Mesh   7 at (  20  58  15)
       ---------------------------------------------------------------
       Mesh    1
       Max CFL number:  0.93E-01 at ( 122,  52,  19)
       Max divergence:  0.57E-02 at (   8,  19,  20)
       Min divergence: -0.75E-03 at ( 109,  52,  33)
       Max VN number:   0.42E-01 at (   8,  52,  32)
       Radiation Loss to Boundaries:        43.345 kW
       Mesh    2
       Max CFL number:  0.26E+00 at (   8,   9,  27)
       Max divergence:  0.84E-02 at (   8,   7,  40)
       Min divergence: -0.26E-02 at ( 159,  32,  21)
       Max VN number:   0.15E+00 at (   8,   9,  13)
       Radiation Loss to Boundaries:        42.171 kW
       Mesh    3
       Max CFL number:  0.70E+00 at ( 161,  55,  15)
       Max divergence:  0.65E-01 at ( 161,  57,  15)
       Min divergence: -0.10E+00 at ( 161,  54,  13)
       Max VN number:   0.37E+00 at ( 161,  52,  15)
       Total Heat Release Rate:              0.006 kW
       Radiation Loss to Boundaries:        49.903 kW
       Mesh    4
       Max CFL number:  0.93E-01 at ( 160,  52,  33)
       Max divergence:  0.56E-02 at ( 160,  19,  34)
       Min divergence: -0.75E-03 at (  46,  52,  19)
       Max VN number:   0.42E-01 at ( 160,  52,  32)
       Radiation Loss to Boundaries:        48.291 kW
       Mesh    5
       Max CFL number:  0.58E+00 at (   7,   2,  15)
       Max divergence:  0.21E-01 at (   8,   1,  14)
       Min divergence: -0.52E-01 at (   4,   2,  15)
       Max VN number:   0.33E+00 at (   9,   2,  13)
       Radiation Loss to Boundaries:        19.123 kW
       Mesh    6
       Max CFL number:  0.13E+00 at (  68,   7,  26)
       Max divergence:  0.57E-02 at (  82,   7,  40)
       Min divergence: -0.25E-02 at (  31,  32,  21)
       Max VN number:   0.81E-01 at (  20,  32,  22)
       Radiation Loss to Boundaries:        16.914 kW
       Mesh    7
       Max CFL number:  0.96E+00 at (  13,  49,  11)
       Max divergence:  0.12E+01 at (   6,  53,   9)
       Min divergence: -0.72E+00 at (   4,  53,  11)
       Max VN number:   0.47E+00 at (  14,  49,  11)
       Total Heat Release Rate:            374.547 kW
       Radiation Loss to Boundaries:       -50.998 kW
 
       Time Step      80   October 13, 2020  19:08:34
       Step Size:    0.915E-01 s, Total Time:       7.90 s
       Pressure Iterations:      3
       Maximum Velocity Error:  0.23E-01 on Mesh   3 at ( 165  47  15)
       Maximum Pressure Error:  0.43E+02 on Mesh   7 at (  10  45   9)
       ---------------------------------------------------------------
       Mesh    1
       Max CFL number:  0.10E+00 at ( 122,  52,  19)
       Max divergence:  0.58E-02 at (   8,  19,  20)
       Min divergence: -0.77E-03 at (  33,  52,  33)
       Max VN number:   0.51E-01 at ( 122,  52,  18)
       Radiation Loss to Boundaries:        43.034 kW
       Mesh    2
       Max CFL number:  0.51E+00 at ( 161,   1,  15)
       Max divergence:  0.22E-01 at ( 163,   1,  15)
       Min divergence: -0.14E-01 at ( 164,   2,  15)
       Max VN number:   0.18E+00 at ( 161,   1,  15)
       Radiation Loss to Boundaries:        41.638 kW
       Mesh    3
       Max CFL number:  0.67E+00 at ( 164,  48,  15)
       Max divergence:  0.38E-01 at ( 164,  49,  14)
       Min divergence: -0.85E-01 at ( 164,  47,  15)
       Max VN number:   0.30E+00 at ( 161,  53,  15)
       Total Heat Release Rate:              0.021 kW
       Radiation Loss to Boundaries:        48.957 kW
       Mesh    4
       Max CFL number:  0.10E+00 at ( 160,  52,  33)
       Max divergence:  0.58E-02 at ( 160,  19,  20)
       Min divergence: -0.77E-03 at ( 159,  19,  21)
       Max VN number:   0.51E-01 at ( 160,  52,  32)
       Radiation Loss to Boundaries:        48.100 kW
       Mesh    5
       Max CFL number:  0.79E+00 at (  20,   2,  15)
       Max divergence:  0.28E-01 at (  18,   3,  15)
       Min divergence: -0.60E-01 at (  20,   3,  15)
       Max VN number:   0.28E+00 at (  20,   1,  13)
       Total Heat Release Rate:              0.001 kW
       Radiation Loss to Boundaries:        18.772 kW
       Mesh    6
       Max CFL number:  0.16E+00 at (  68,   7,  26)
       Max divergence:  0.59E-02 at (  82,   7,  40)
       Min divergence: -0.22E-02 at (  31,  32,  21)
       Max VN number:   0.83E-01 at (  20,  32,  22)
       Radiation Loss to Boundaries:        16.874 kW
       Mesh    7
       Max CFL number:  0.98E+00 at (  14,  47,  11)
       Max divergence:  0.30E+01 at (   8,  51,   9)
       Min divergence: -0.12E+01 at (  14,  49,  11)
       Max VN number:   0.63E+00 at (  14,  46,  15)
       Total Heat Release Rate:            405.385 kW
       Radiation Loss to Boundaries:       -57.787 kW
 
       Time Step      90   October 13, 2020  19:09:00
       Step Size:    0.803E-01 s, Total Time:       8.72 s
       Pressure Iterations:      2
       Maximum Velocity Error:  0.47E-01 on Mesh   7 at (  10  45   8)
       Maximum Pressure Error:  0.26E+02 on Mesh   7 at (  10  45   9)
       ---------------------------------------------------------------
       Mesh    1
       Max CFL number:  0.93E-01 at ( 122,  52,  19)
       Max divergence:  0.60E-02 at (   8,  19,  20)
       Min divergence: -0.85E-03 at (   9,  19,  35)
       Max VN number:   0.51E-01 at (   8,  18,  33)
       Radiation Loss to Boundaries:        44.216 kW
       Mesh    2
       Max CFL number:  0.59E+00 at ( 161,   2,  12)
       Max divergence:  0.19E-01 at ( 162,   4,  15)
       Min divergence: -0.43E-01 at ( 161,   3,  12)
       Max VN number:   0.23E+00 at ( 161,   1,  12)
       Radiation Loss to Boundaries:        43.105 kW
       Mesh    3
       Max CFL number:  0.70E+00 at ( 163,  49,  15)
       Max divergence:  0.62E-01 at ( 164,  50,  14)
       Min divergence: -0.11E+00 at ( 164,  47,  15)
       Max VN number:   0.44E+00 at ( 161,  49,  15)
       Total Heat Release Rate:              0.100 kW
       Radiation Loss to Boundaries:        50.283 kW
       Mesh    4
       Max CFL number:  0.92E-01 at ( 160,  52,  19)
       Max divergence:  0.60E-02 at ( 160,  19,  20)
       Min divergence: -0.81E-03 at ( 159,  19,  21)
       Max VN number:   0.51E-01 at ( 160,  18,  33)
       Radiation Loss to Boundaries:        49.560 kW
       Mesh    5
       Max CFL number:  0.67E+00 at (  20,   6,  13)
       Max divergence:  0.26E-01 at (  18,   7,  15)
       Min divergence: -0.39E-01 at (  20,   7,  15)
       Max VN number:   0.28E+00 at (  20,   5,  13)
       Radiation Loss to Boundaries:        24.637 kW
       Mesh    6
       Max CFL number:  0.15E+00 at (  68,   7,  40)
       Max divergence:  0.61E-02 at (  82,   7,  40)
       Min divergence: -0.22E-02 at (  18,  32,  21)
       Max VN number:   0.87E-01 at (  68,   7,  28)
       Radiation Loss to Boundaries:        18.683 kW
       Mesh    7
       Max CFL number:  0.10E+01 at (   4,  48,  11)
       Max divergence:  0.68E+01 at (  10,  45,   9)
       Min divergence: -0.11E+01 at (   4,  49,  11)
       Max VN number:   0.62E+00 at (  15,  47,  15)
       Total Heat Release Rate:            457.142 kW
       Radiation Loss to Boundaries:       -61.950 kW
 
       Time Step     100   October 13, 2020  19:09:25
       Step Size:    0.705E-01 s, Total Time:       9.42 s
       Pressure Iterations:      3
       Maximum Velocity Error:  0.24E-01 on Mesh   7 at (   9  43   8)
       Maximum Pressure Error:  0.61E+02 on Mesh   7 at (   9  43   9)
       ---------------------------------------------------------------
       Mesh    1
       Max CFL number:  0.84E-01 at ( 122,  52,  19)
       Max divergence:  0.61E-02 at (   8,  19,  20)
       Min divergence: -0.79E-03 at ( 109,  19,  35)
       Max VN number:   0.49E-01 at (   8,  18,  33)
       Radiation Loss to Boundaries:        43.834 kW
       Mesh    2
       Max CFL number:  0.54E+00 at ( 161,   6,  12)
       Max divergence:  0.17E-01 at ( 161,   9,  15)
       Min divergence: -0.48E-01 at ( 161,   6,  12)
       Max VN number:   0.20E+00 at ( 160,   4,  13)
       Radiation Loss to Boundaries:        43.241 kW
       Mesh    3
       Max CFL number:  0.66E+00 at ( 163,  49,  15)
       Max divergence:  0.92E-01 at ( 164,  48,  14)
       Min divergence: -0.15E+00 at ( 164,  49,  15)
       Max VN number:   0.42E+00 at ( 161,  50,  15)
       Total Heat Release Rate:              0.141 kW
       Radiation Loss to Boundaries:        49.690 kW
       Mesh    4
       Max CFL number:  0.83E-01 at ( 160,  52,  19)
       Max divergence:  0.61E-02 at ( 160,  19,  20)
       Min divergence: -0.78E-03 at (  46,  19,  35)
       Max VN number:   0.49E-01 at ( 160,  18,  33)
       Radiation Loss to Boundaries:        49.923 kW
       Mesh    5
       Max CFL number:  0.57E+00 at (  20,  11,  15)
       Max divergence:  0.20E-01 at (   3,   1,  14)
       Min divergence: -0.46E-01 at (  20,   9,  13)
       Max VN number:   0.22E+00 at (  20,   9,  13)
       Radiation Loss to Boundaries:        23.946 kW
       Mesh    6
       Max CFL number:  0.13E+00 at (  68,   7,  28)
       Max divergence:  0.62E-02 at (  82,   7,  40)
       Min divergence: -0.21E-02 at (  18,  32,  21)
       Max VN number:   0.80E-01 at (  68,   7,  28)
       Radiation Loss to Boundaries:        19.347 kW
       Mesh    7
       Max CFL number:  0.92E+00 at (  13,  48,  11)
       Max divergence:  0.83E+01 at (   8,  44,   9)
       Min divergence: -0.56E+00 at (  14,  48,  11)
       Max VN number:   0.53E+00 at (  16,  48,  15)
       Total Heat Release Rate:            518.226 kW
       Radiation Loss to Boundaries:       -88.353 kW
 
