
 Fire Dynamics Simulator

 Current Date     : July 15, 2020  16:45:56
 Revision         : FDS6.7.4-1001-g3529ee9-master
 Revision Date    : Wed Jul 15 15:36:03 2020 +0200
 Compiler         : Intel ifort 19.0.5.281
 Compilation Date : Jul 15, 2020 15:36:20

 MPI Enabled;    Number of MPI Processes:       4
 OpenMP Enabled; Number of OpenMP Threads:      4

 MPI version: 3.1
 MPI library version: Intel(R) MPI Library 2018 Update 1 for Linux* OS


 Job TITLE        : Analytical solution to the 2d Navier-Stokes equations
 Job ID string    : ns2d_4mesh_64_scarc_nupt1


 Grid Dimensions, Mesh     1

   Cells in the X Direction            32
   Cells in the Y Direction             1
   Cells in the Z Direction            32
   Number of Grid Cells              1024


 Physical Dimensions, Mesh     1

   Length (m)                       3.142
   Width  (m)                       0.100
   Height (m)                       3.142
   Initial Time Step (s)            0.015

 Grid Dimensions, Mesh     2

   Cells in the X Direction            32
   Cells in the Y Direction             1
   Cells in the Z Direction            32
   Number of Grid Cells              1024


 Physical Dimensions, Mesh     2

   Length (m)                       3.142
   Width  (m)                       0.100
   Height (m)                       3.142
   Initial Time Step (s)            0.015

 Grid Dimensions, Mesh     3

   Cells in the X Direction            32
   Cells in the Y Direction             1
   Cells in the Z Direction            32
   Number of Grid Cells              1024


 Physical Dimensions, Mesh     3

   Length (m)                       3.142
   Width  (m)                       0.100
   Height (m)                       3.142
   Initial Time Step (s)            0.015

 Grid Dimensions, Mesh     4

   Cells in the X Direction            32
   Cells in the Y Direction             1
   Cells in the Z Direction            32
   Number of Grid Cells              1024


 Physical Dimensions, Mesh     4

   Length (m)                       3.142
   Width  (m)                       0.100
   Height (m)                       3.142
   Initial Time Step (s)            0.015

Total Number of Grid Cells          4096


 Miscellaneous Parameters

   Simulation Start Time (s)          0.0
   Simulation End Time (s)            6.3
   Ambient Temperature (C):         20.00


 Mass Fraction Transformation Matrix to Convert Species Mixtures (Columns) to Primitive Species (Rows)

                         BACKGROU
   BACKGROUND            1.000000


 Primitive Species Information

   BACKGROUND
   Gas Species
   Molecular Weight (g/mol)            24.05515
   Ambient Density (kg/m^3)            1.000
   Enthalpy of Formation (J/kg)        0.00E+00


 Tracked (Lumped) Species Information

   BACKGROUND
   Molecular Weight (g/mol)            24.05515
   Ambient Density (kg/m^3)            1.000
   Initial Mass Fraction               1.000
   Enthalpy of Formation (J/kg)      0.00E+00

   Sub Species                    Mass Fraction     Mole Fraction
   BACKGROUND                     1.000000E+00      1.000000E+00
 
     Viscosity (kg/m/s) Ambient,  293 K:  1.00E-01
                                  500 K:  1.00E-01
                                 1000 K:  1.00E-01
                                 1500 K:  1.00E-01
   Therm. Cond. (W/m/K) Ambient,  293 K:  1.70E+02
                                  500 K:  1.70E+02
                                 1000 K:  1.70E+02
                                 1500 K:  1.70E+02
        Enthalpy (J/kg) Ambient,  293 K:  3.55E+05
                                  500 K:  6.05E+05
                                 1000 K:  1.21E+06
                                 1500 K:  1.81E+06
    Spec. Heat (J/kg/K) Ambient,  293 K:  1.21E+03
                                  500 K:  1.21E+03
                                 1000 K:  1.21E+03
                                 1500 K:  1.21E+03
   Diff. Coeff. (m^2/s) Ambient,  293 K:  2.14E-05
                                  500 K:  5.32E-05
                                 1000 K:  1.69E-04
                                 1500 K:  3.31E-04


 Material Information


 Surface Conditions

   0 INERT (DEFAULT)

   1 OPEN
     Passive Vent to Atmosphere

   2 MIRROR
     Symmetry Plane

   3 INTERPOLATED

   4 PERIODIC

   5 HVAC

   6 MASSLESS TRACER

   7 DROPLET

   8 EVACUATION_OUTFLOW
     Normal Velocity (m/s)         0.000

   9 MASSLESS TARGET

  10 PERIODIC WIND


 Device Coordinates

     1 Coords:      3.141493      0.000000      3.141493, Make: null, ID: UVEL, Quantity: U-VELOCITY
     2 Coords:      3.141493      0.000000      3.141493, Make: null, ID: PRES, Quantity: PRESSURE
     3 Coords:      3.141493      0.000000      3.141493, Make: null, ID: VISC, Quantity: VISCOSITY
     4 Coords:      0.000982      0.000000      0.000982, Make: null, ID: scarc-iter, Quantity: SCARC ITERATIONS
     5 Coords:      0.000982      0.000000      0.000982, Make: null, ID: scarc-rate, Quantity: SCARC CONVERGENCE RATE
     6 Coords:      0.000982      0.000000      0.000982, Make: null, ID: scarc-res, Quantity: SCARC RESIDUAL


 Slice File Information, Mesh     1

   Sampling Interval (s)             0.006

   1 Nodes:   0  32   1   1   0  32, Quantity: VELOCITY
   2 Nodes:   0  32   1   1   0  32, Quantity: U-VELOCITY
   3 Nodes:   0  32   1   1   0  32, Quantity: W-VELOCITY
   4 Nodes:   0  32   1   1   0  32, Quantity: DENSITY
   5 Nodes:   0  32   1   1   0  32, Quantity: H
   6 Nodes:   0  32   1   1   0  32, Quantity: PRESSURE
   7 Nodes:   0  32   1   1   0  32, Quantity: VISCOSITY
   8 Nodes:   0  32   1   1   0  32, Quantity: DIVERGENCE


 Radiation Model Information

   Number of control angles   60
   Time step increment         2
   Angle increment             4
   Phi band   N_theta Solid angle
     1:       60     0.209


 SCARC Information

   Discretization             STRUCTURED
   Global solver                  KRYLOV
   Storage technique             COMPACT
   Preconditioner                PARDISO
   MKL precision                  DOUBLE
   Max iterations                   1000
   Stopping accuracy            0.10E-13
 
 

 Run Time Diagnostics

       Time Step       1   July 15, 2020  16:45:56
       Step Size:    0.540E-02 s, Total Time:      0.005 s
       Pressure Iterations:      1
       Maximum Velocity Error:  0.44E-15 on Mesh   1 at (   5   1   0)
       Maximum Pressure Error:  0.92E-08 on Mesh   4 at (  32   1  32)
       ScaRC: iterations    94, residual  0.44E-14, convergence rate   0.65E+00
       ---------------------------------------------------------------
       Mesh    1
       Max CFL number:  0.23E+00 at (  24,   1,   9)
       Max divergence:  0.16E-12 at (  24,   1,  24)
       Min divergence: -0.53E-13 at (  26,   1,  18)
       Max VN number:   0.32E+00 at (  32,   1,  32)
       Mesh    2
       Max CFL number:  0.23E+00 at (   9,   1,  24)
       Max divergence:  0.15E-12 at (   9,   1,  24)
       Min divergence: -0.20E-12 at (  12,   1,  18)
       Max VN number:   0.32E+00 at (  32,   1,  32)
       Mesh    3
       Max CFL number:  0.23E+00 at (   9,   1,  24)
       Max divergence:  0.14E-12 at (  24,   1,  22)
       Min divergence: -0.21E-12 at (  18,   1,  30)
       Max VN number:   0.32E+00 at (  32,   1,  32)
       Mesh    4
       Max CFL number:  0.23E+00 at (  24,   1,   9)
       Max divergence:  0.25E-10 at (  32,   1,  32)
       Min divergence: -0.33E-12 at (  30,   1,  18)
       Max VN number:   0.32E+00 at (  32,   1,  32)
 
       Time Step       2   July 15, 2020  16:45:56
       Step Size:    0.594E-02 s, Total Time:       0.01 s
       Pressure Iterations:      1
       Maximum Velocity Error:  0.44E-15 on Mesh   1 at (  12   1   0)
       Maximum Pressure Error:  0.92E-08 on Mesh   4 at (  32   1  32)
       ScaRC: iterations    91, residual  0.94E-14, convergence rate   0.64E+00
       ---------------------------------------------------------------
       Mesh    1
       Max CFL number:  0.25E+00 at (  24,   1,   9)
       Max divergence:  0.34E-12 at (   1,   1,   1)
       Min divergence: -0.65E-13 at (  28,   1,  18)
       Max VN number:   0.35E+00 at (  24,   1,  24)
       Mesh    2
       Max CFL number:  0.25E+00 at (   9,   1,  24)
       Max divergence:  0.24E-11 at (  32,   1,   1)
       Min divergence: -0.17E-12 at (  18,   1,  28)
       Max VN number:   0.35E+00 at (  26,   1,  24)
       Mesh    3
       Max CFL number:  0.25E+00 at (   9,   1,  24)
       Max divergence:  0.23E-11 at (   1,   1,  32)
       Min divergence: -0.19E-12 at (  15,   1,  29)
       Max VN number:   0.35E+00 at (  24,   1,  31)
       Mesh    4
       Max CFL number:  0.25E+00 at (  24,   1,   9)
       Max divergence:  0.16E-10 at (  32,   1,  32)
       Min divergence: -0.32E-12 at (  24,   1,  18)
       Max VN number:   0.35E+00 at (  32,   1,  32)
 
       Time Step       3   July 15, 2020  16:45:56
       Step Size:    0.540E-02 s, Total Time:       0.02 s
       Pressure Iterations:      1
       Maximum Velocity Error:  0.44E-15 on Mesh   1 at (   9   1   0)
       Maximum Pressure Error:  0.91E-08 on Mesh   4 at (  32   1  32)
       ScaRC: iterations    94, residual  0.43E-14, convergence rate   0.65E+00
       ---------------------------------------------------------------
       Mesh    1
       Max CFL number:  0.23E+00 at (  24,   1,   9)
       Max divergence:  0.72E-12 at (   1,   1,   1)
       Min divergence: -0.59E-13 at (  31,   1,  23)
       Max VN number:   0.32E+00 at (   1,   1,   1)
       Mesh    2
       Max CFL number:  0.23E+00 at (   9,   1,  24)
       Max divergence:  0.29E-11 at (  32,   1,   1)
       Min divergence: -0.13E-12 at (  12,   1,  22)
       Max VN number:   0.32E+00 at (  32,   1,   1)
       Mesh    3
       Max CFL number:  0.23E+00 at (   9,   1,  24)
       Max divergence:  0.27E-11 at (   1,   1,  32)
       Min divergence: -0.14E-12 at (  11,   1,  29)
       Max VN number:   0.32E+00 at (   1,   1,  32)
       Mesh    4
       Max CFL number:  0.23E+00 at (  24,   1,   9)
       Max divergence:  0.77E-11 at (  32,   1,  32)
       Min divergence: -0.25E-12 at (  30,   1,  18)
       Max VN number:   0.32E+00 at (  32,   1,  32)
 
       Time Step       4   July 15, 2020  16:45:56
       Step Size:    0.594E-02 s, Total Time:       0.02 s
       Pressure Iterations:      1
       Maximum Velocity Error:  0.44E-15 on Mesh   1 at (   7   1   0)
       Maximum Pressure Error:  0.91E-08 on Mesh   4 at (  32   1  32)
       ScaRC: iterations    91, residual  0.83E-14, convergence rate   0.64E+00
       ---------------------------------------------------------------
       Mesh    1
       Max CFL number:  0.25E+00 at (  24,   1,   9)
       Max divergence:  0.92E-12 at (   1,   1,   1)
       Min divergence: -0.45E-13 at (  32,   1,  28)
       Max VN number:   0.35E+00 at (   1,   1,   1)
       Mesh    2
       Max CFL number:  0.25E+00 at (   9,   1,  24)
       Max divergence:  0.32E-11 at (  32,   1,   1)
       Min divergence: -0.14E-12 at (  18,   1,  26)
       Max VN number:   0.35E+00 at (  32,   1,   1)
       Mesh    3
       Max CFL number:  0.25E+00 at (   9,   1,  24)
       Max divergence:  0.29E-11 at (   1,   1,  32)
       Min divergence: -0.16E-12 at (  15,   1,  29)
       Max VN number:   0.35E+00 at (   1,   1,  32)
       Mesh    4
       Max CFL number:  0.25E+00 at (  24,   1,   9)
       Max divergence:  0.51E-11 at (  32,   1,  32)
       Min divergence: -0.28E-12 at (  29,   1,  18)
       Max VN number:   0.35E+00 at (  32,   1,  32)
 
       Time Step       5   July 15, 2020  16:45:56
       Step Size:    0.541E-02 s, Total Time:       0.03 s
       Pressure Iterations:      1
       Maximum Velocity Error:  0.44E-15 on Mesh   1 at (   4   1   0)
       Maximum Pressure Error:  0.90E-08 on Mesh   4 at (  32   1  32)
       ScaRC: iterations    94, residual  0.37E-14, convergence rate   0.64E+00
       ---------------------------------------------------------------
       Mesh    1
       Max CFL number:  0.23E+00 at (  25,   1,   9)
       Max divergence:  0.10E-11 at (   1,   1,   1)
       Min divergence: -0.37E-13 at (  15,   1,  32)
       Max VN number:   0.32E+00 at (   1,   1,   1)
       Mesh    2
       Max CFL number:  0.23E+00 at (   9,   1,  25)
       Max divergence:  0.28E-11 at (  32,   1,   1)
       Min divergence: -0.12E-12 at (  18,   1,  22)
       Max VN number:   0.32E+00 at (  32,   1,   1)
       Mesh    3
       Max CFL number:  0.23E+00 at (   9,   1,  25)
       Max divergence:  0.24E-11 at (   1,   1,  32)
       Min divergence: -0.13E-12 at (  11,   1,  29)
       Max VN number:   0.32E+00 at (   1,   1,  32)
       Mesh    4
       Max CFL number:  0.23E+00 at (  25,   1,   9)
       Max divergence:  0.46E-11 at (  31,   1,  32)
       Min divergence: -0.21E-12 at (  29,   1,  18)
       Max VN number:   0.32E+00 at (  32,   1,  32)
 
       Time Step       6   July 15, 2020  16:45:56
       Step Size:    0.595E-02 s, Total Time:       0.03 s
       Pressure Iterations:      1
       Maximum Velocity Error:  0.44E-15 on Mesh   1 at (   9   1   0)
       Maximum Pressure Error:  0.90E-08 on Mesh   4 at (  32   1  32)
       ScaRC: iterations    91, residual  0.81E-14, convergence rate   0.64E+00
       ---------------------------------------------------------------
       Mesh    1
       Max CFL number:  0.25E+00 at (  25,   1,   9)
       Max divergence:  0.94E-12 at (   1,   1,   1)
       Min divergence: -0.41E-13 at (  32,   1,  18)
       Max VN number:   0.35E+00 at (   1,   1,   1)
       Mesh    2
       Max CFL number:  0.25E+00 at (   9,   1,  25)
       Max divergence:  0.27E-11 at (  32,   1,   1)
       Min divergence: -0.12E-12 at (  18,   1,  31)
       Max VN number:   0.35E+00 at (  32,   1,   1)
       Mesh    3
       Max CFL number:  0.25E+00 at (   9,   1,  25)
       Max divergence:  0.20E-11 at (   1,   1,  32)
       Min divergence: -0.15E-12 at (  14,   1,  29)
       Max VN number:   0.35E+00 at (   1,   1,  32)
       Mesh    4
       Max CFL number:  0.25E+00 at (  25,   1,   9)
       Max divergence:  0.50E-11 at (  31,   1,  32)
       Min divergence: -0.22E-12 at (  29,   1,  18)
       Max VN number:   0.35E+00 at (  32,   1,  32)
 
       Time Step       7   July 15, 2020  16:45:57
       Step Size:    0.542E-02 s, Total Time:       0.04 s
       Pressure Iterations:      1
       Maximum Velocity Error:  0.44E-15 on Mesh   1 at (  10   1   0)
       Maximum Pressure Error:  0.90E-08 on Mesh   4 at (  32   1  32)
       ScaRC: iterations    94, residual  0.39E-14, convergence rate   0.64E+00
       ---------------------------------------------------------------
       Mesh    1
       Max CFL number:  0.23E+00 at (  25,   1,   9)
       Max divergence:  0.85E-12 at (   1,   1,   1)
       Min divergence: -0.51E-13 at (  15,   1,  32)
       Max VN number:   0.32E+00 at (   1,   1,   1)
       Mesh    2
       Max CFL number:  0.23E+00 at (   9,   1,  25)
       Max divergence:  0.21E-11 at (  32,   1,   1)
       Min divergence: -0.98E-13 at (  23,   1,  32)
       Max VN number:   0.32E+00 at (  32,   1,   1)
       Mesh    3
       Max CFL number:  0.23E+00 at (   9,   1,  25)
       Max divergence:  0.14E-11 at (   1,   1,  31)
       Min divergence: -0.16E-12 at (  18,   1,  29)
       Max VN number:   0.32E+00 at (   1,   1,  32)
       Mesh    4
       Max CFL number:  0.23E+00 at (  25,   1,   9)
       Max divergence:  0.49E-11 at (  31,   1,  32)
       Min divergence: -0.28E-11 at (  32,   1,  32)
       Max VN number:   0.32E+00 at (  32,   1,  32)
 
       Time Step       8   July 15, 2020  16:45:57
       Step Size:    0.596E-02 s, Total Time:       0.05 s
       Pressure Iterations:      1
       Maximum Velocity Error:  0.44E-15 on Mesh   1 at (   9   1   0)
       Maximum Pressure Error:  0.89E-08 on Mesh   4 at (  32   1  32)
       ScaRC: iterations    91, residual  0.67E-14, convergence rate   0.64E+00
       ---------------------------------------------------------------
       Mesh    1
       Max CFL number:  0.25E+00 at (  25,   1,   9)
       Max divergence:  0.74E-12 at (   1,   1,   2)
       Min divergence: -0.44E-13 at (  32,   1,  32)
       Max VN number:   0.35E+00 at (   1,   1,   1)
       Mesh    2
       Max CFL number:  0.25E+00 at (   9,   1,  25)
       Max divergence:  0.20E-11 at (  32,   1,   1)
       Min divergence: -0.11E-12 at (  11,   1,  25)
       Max VN number:   0.35E+00 at (  32,   1,   1)
       Mesh    3
       Max CFL number:  0.25E+00 at (   9,   1,  25)
       Max divergence:  0.15E-11 at (   1,   1,  31)
       Min divergence: -0.14E-12 at (  15,   1,  29)
       Max VN number:   0.35E+00 at (   1,   1,  32)
       Mesh    4
       Max CFL number:  0.25E+00 at (  25,   1,   9)
       Max divergence:  0.50E-11 at (  31,   1,  32)
       Min divergence: -0.20E-11 at (  32,   1,  32)
       Max VN number:   0.35E+00 at (  32,   1,  32)
 
       Time Step       9   July 15, 2020  16:45:57
       Step Size:    0.542E-02 s, Total Time:       0.05 s
       Pressure Iterations:      1
       Maximum Velocity Error:  0.44E-15 on Mesh   1 at (   9   1   0)
       Maximum Pressure Error:  0.88E-08 on Mesh   4 at (  32   1  32)
       ScaRC: iterations    94, residual  0.42E-14, convergence rate   0.65E+00
       ---------------------------------------------------------------
       Mesh    1
       Max CFL number:  0.23E+00 at (  25,   1,   9)
       Max divergence:  0.77E-12 at (   1,   1,   2)
       Min divergence: -0.44E-13 at (  32,   1,  26)
       Max VN number:   0.32E+00 at (   1,   1,   1)
       Mesh    2
       Max CFL number:  0.23E+00 at (   9,   1,  25)
       Max divergence:  0.16E-11 at (  31,   1,   1)
       Min divergence: -0.12E-12 at (  17,   1,  31)
       Max VN number:   0.32E+00 at (  32,   1,   1)
       Mesh    3
       Max CFL number:  0.23E+00 at (   9,   1,  25)
       Max divergence:  0.15E-11 at (   1,   1,  31)
       Min divergence: -0.13E-12 at (  17,   1,  29)
       Max VN number:   0.32E+00 at (   1,   1,  32)
       Mesh    4
       Max CFL number:  0.23E+00 at (  25,   1,   9)
       Max divergence:  0.49E-11 at (  31,   1,  32)
       Min divergence: -0.45E-11 at (  32,   1,  32)
       Max VN number:   0.32E+00 at (  32,   1,  32)
 
       Time Step      10   July 15, 2020  16:45:57
       Step Size:    0.596E-02 s, Total Time:       0.06 s
       Pressure Iterations:      1
       Maximum Velocity Error:  0.44E-15 on Mesh   1 at (   8   1   0)
       Maximum Pressure Error:  0.88E-08 on Mesh   4 at (  32   1  32)
       ScaRC: iterations    91, residual  0.71E-14, convergence rate   0.64E+00
       ---------------------------------------------------------------
       Mesh    1
       Max CFL number:  0.25E+00 at (  25,   1,   9)
       Max divergence:  0.76E-12 at (   1,   1,   2)
       Min divergence: -0.60E-13 at (  18,   1,  32)
       Max VN number:   0.35E+00 at (   1,   1,   1)
       Mesh    2
       Max CFL number:  0.25E+00 at (   9,   1,  25)
       Max divergence:  0.16E-11 at (  31,   1,   1)
       Min divergence: -0.11E-12 at (  11,   1,  25)
       Max VN number:   0.35E+00 at (  32,   1,   1)
       Mesh    3
       Max CFL number:  0.25E+00 at (   9,   1,  25)
       Max divergence:  0.15E-11 at (   1,   1,  31)
       Min divergence: -0.14E-12 at (  18,   1,  29)
       Max VN number:   0.35E+00 at (   1,   1,  32)
       Mesh    4
       Max CFL number:  0.25E+00 at (  25,   1,   9)
       Max divergence:  0.51E-11 at (  31,   1,  32)
       Min divergence: -0.31E-11 at (  32,   1,  32)
       Max VN number:   0.35E+00 at (  32,   1,  32)
 
       Time Step      20   July 15, 2020  16:45:57
       Step Size:    0.600E-02 s, Total Time:       0.11 s
       Pressure Iterations:      1
       Maximum Velocity Error:  0.89E-15 on Mesh   3 at (   9   1  33)
       Maximum Pressure Error:  0.82E-08 on Mesh   4 at (  32   1  32)
       ScaRC: iterations    91, residual  0.67E-14, convergence rate   0.64E+00
       ---------------------------------------------------------------
       Mesh    1
       Max CFL number:  0.25E+00 at (  25,   1,  10)
       Max divergence:  0.38E-12 at (   1,   1,   3)
       Min divergence: -0.13E-11 at (   1,   1,   1)
       Max VN number:   0.35E+00 at (   1,   1,   1)
       Mesh    2
       Max CFL number:  0.25E+00 at (  10,   1,  25)
       Max divergence:  0.16E-11 at (  31,   1,   1)
       Min divergence: -0.13E-12 at (  11,   1,  22)
       Max VN number:   0.35E+00 at (  32,   1,   1)
       Mesh    3
       Max CFL number:  0.25E+00 at (  10,   1,  25)
       Max divergence:  0.13E-11 at (   1,   1,  31)
       Min divergence: -0.21E-11 at (   1,   1,  32)
       Max VN number:   0.35E+00 at (   1,   1,  32)
       Mesh    4
       Max CFL number:  0.25E+00 at (  25,   1,  10)
       Max divergence:  0.49E-11 at (  31,   1,  32)
       Min divergence: -0.50E-11 at (  32,   1,  32)
       Max VN number:   0.35E+00 at (  32,   1,  32)
 
       Time Step      30   July 15, 2020  16:45:58
       Step Size:    0.603E-02 s, Total Time:       0.17 s
       Pressure Iterations:      1
       Maximum Velocity Error:  0.44E-15 on Mesh   1 at (  10   1   0)
       Maximum Pressure Error:  0.75E-08 on Mesh   4 at (  32   1  32)
       ScaRC: iterations    91, residual  0.61E-14, convergence rate   0.64E+00
       ---------------------------------------------------------------
       Mesh    1
       Max CFL number:  0.25E+00 at (  26,   1,  10)
       Max divergence:  0.22E-12 at (   4,   1,   1)
       Min divergence: -0.16E-11 at (   1,   1,   1)
       Max VN number:   0.35E+00 at (   1,   1,   1)
       Mesh    2
       Max CFL number:  0.25E+00 at (  10,   1,  26)
       Max divergence:  0.16E-11 at (  31,   1,   1)
       Min divergence: -0.14E-12 at (  11,   1,  22)
       Max VN number:   0.35E+00 at (  32,   1,   1)
       Mesh    3
       Max CFL number:  0.25E+00 at (  10,   1,  26)
       Max divergence:  0.12E-11 at (   1,   1,  31)
       Min divergence: -0.29E-11 at (   1,   1,  32)
       Max VN number:   0.35E+00 at (   1,   1,  32)
       Mesh    4
       Max CFL number:  0.25E+00 at (  26,   1,  10)
       Max divergence:  0.46E-11 at (  31,   1,  32)
       Min divergence: -0.53E-11 at (  32,   1,  32)
       Max VN number:   0.35E+00 at (  32,   1,  32)
 
       Time Step      40   July 15, 2020  16:45:59
       Step Size:    0.607E-02 s, Total Time:       0.23 s
       Pressure Iterations:      1
       Maximum Velocity Error:  0.44E-15 on Mesh   1 at (  19   1   0)
       Maximum Pressure Error:  0.67E-08 on Mesh   4 at (  32   1  32)
       ScaRC: iterations    91, residual  0.80E-14, convergence rate   0.64E+00
       ---------------------------------------------------------------
       Mesh    1
       Max CFL number:  0.25E+00 at (  27,   1,  11)
       Max divergence:  0.15E-12 at (   6,   1,   2)
       Min divergence: -0.14E-11 at (   1,   1,   1)
       Max VN number:   0.35E+00 at (   1,   1,   1)
       Mesh    2
       Max CFL number:  0.25E+00 at (  11,   1,  27)
       Max divergence:  0.15E-11 at (  31,   1,   1)
       Min divergence: -0.13E-12 at (  17,   1,  17)
       Max VN number:   0.35E+00 at (  32,   1,   1)
       Mesh    3
       Max CFL number:  0.25E+00 at (  11,   1,  27)
       Max divergence:  0.10E-11 at (   1,   1,  31)
       Min divergence: -0.31E-11 at (   1,   1,  32)
       Max VN number:   0.35E+00 at (   1,   1,  32)
       Mesh    4
       Max CFL number:  0.25E+00 at (  27,   1,  11)
       Max divergence:  0.43E-11 at (  31,   1,  32)
       Min divergence: -0.51E-11 at (  32,   1,  32)
       Max VN number:   0.35E+00 at (  32,   1,  32)
 
       Time Step      50   July 15, 2020  16:46:00
       Step Size:    0.610E-02 s, Total Time:       0.29 s
       Pressure Iterations:      1
       Maximum Velocity Error:  0.44E-15 on Mesh   1 at (  12   1   0)
       Maximum Pressure Error:  0.58E-08 on Mesh   4 at (  32   1  32)
       ScaRC: iterations    91, residual  0.85E-14, convergence rate   0.64E+00
       ---------------------------------------------------------------
       Mesh    1
       Max CFL number:  0.25E+00 at (  27,   1,  12)
       Max divergence:  0.13E-12 at (   1,   1,   6)
       Min divergence: -0.12E-11 at (   1,   1,   1)
       Max VN number:   0.36E+00 at (   1,   1,   1)
       Mesh    2
       Max CFL number:  0.25E+00 at (  12,   1,  27)
       Max divergence:  0.14E-11 at (  31,   1,   1)
       Min divergence: -0.12E-12 at (  11,   1,  17)
       Max VN number:   0.36E+00 at (  32,   1,   1)
       Mesh    3
       Max CFL number:  0.25E+00 at (  12,   1,  27)
       Max divergence:  0.90E-12 at (   1,   1,  31)
       Min divergence: -0.31E-11 at (   1,   1,  32)
       Max VN number:   0.36E+00 at (   1,   1,  32)
       Mesh    4
       Max CFL number:  0.25E+00 at (  27,   1,  12)
       Max divergence:  0.39E-11 at (  31,   1,  32)
       Min divergence: -0.48E-11 at (  32,   1,  32)
       Max VN number:   0.36E+00 at (  32,   1,  32)
 
       Time Step      60   July 15, 2020  16:46:00
       Step Size:    0.614E-02 s, Total Time:       0.35 s
       Pressure Iterations:      1
       Maximum Velocity Error:  0.44E-15 on Mesh   1 at (  22   1   0)
       Maximum Pressure Error:  0.49E-08 on Mesh   4 at (  32   1  32)
       ScaRC: iterations    94, residual  0.48E-14, convergence rate   0.65E+00
       ---------------------------------------------------------------
       Mesh    1
       Max CFL number:  0.25E+00 at (  28,   1,  12)
       Max divergence:  0.11E-12 at (   1,   1,   6)
       Min divergence: -0.11E-11 at (   1,   1,   1)
       Max VN number:   0.36E+00 at (   1,   1,   1)
       Mesh    2
       Max CFL number:  0.25E+00 at (  12,   1,  28)
       Max divergence:  0.13E-11 at (  31,   1,   1)
       Min divergence: -0.11E-12 at (  17,   1,  31)
       Max VN number:   0.36E+00 at (  32,   1,   1)
       Mesh    3
       Max CFL number:  0.25E+00 at (  12,   1,  28)
       Max divergence:  0.67E-12 at (   1,   1,  30)
       Min divergence: -0.29E-11 at (   1,   1,  32)
       Max VN number:   0.36E+00 at (   1,   1,  32)
       Mesh    4
       Max CFL number:  0.25E+00 at (  28,   1,  12)
       Max divergence:  0.34E-11 at (  31,   1,  32)
       Min divergence: -0.43E-11 at (  32,   1,  32)
       Max VN number:   0.36E+00 at (  32,   1,  32)
 
       Time Step      70   July 15, 2020  16:46:01
       Step Size:    0.618E-02 s, Total Time:       0.40 s
       Pressure Iterations:      1
       Maximum Velocity Error:  0.44E-15 on Mesh   1 at (  20   1   0)
       Maximum Pressure Error:  0.40E-08 on Mesh   4 at (  32   1  32)
       ScaRC: iterations    94, residual  0.39E-14, convergence rate   0.65E+00
       ---------------------------------------------------------------
       Mesh    1
       Max CFL number:  0.25E+00 at (  28,   1,  13)
       Max divergence:  0.14E-12 at (   1,   1,   4)
       Min divergence: -0.95E-12 at (   1,   1,   1)
       Max VN number:   0.36E+00 at (   1,   1,   1)
       Mesh    2
       Max CFL number:  0.25E+00 at (  13,   1,  28)
       Max divergence:  0.11E-11 at (  31,   1,   1)
       Min divergence: -0.96E-13 at (  17,   1,  32)
       Max VN number:   0.36E+00 at (  32,   1,   1)
       Mesh    3
       Max CFL number:  0.25E+00 at (  13,   1,  28)
       Max divergence:  0.58E-12 at (   1,   1,  30)
       Min divergence: -0.25E-11 at (   1,   1,  32)
       Max VN number:   0.36E+00 at (   1,   1,  32)
       Mesh    4
       Max CFL number:  0.25E+00 at (  28,   1,  13)
       Max divergence:  0.29E-11 at (  31,   1,  32)
       Min divergence: -0.38E-11 at (  32,   1,  32)
       Max VN number:   0.36E+00 at (  32,   1,  32)
 
       Time Step      80   July 15, 2020  16:46:02
       Step Size:    0.621E-02 s, Total Time:       0.46 s
       Pressure Iterations:      1
       Maximum Velocity Error:  0.44E-15 on Mesh   2 at (  17   1  33)
       Maximum Pressure Error:  0.31E-08 on Mesh   4 at (  32   1  32)
       ScaRC: iterations    93, residual  0.81E-14, convergence rate   0.65E+00
       ---------------------------------------------------------------
       Mesh    1
       Max CFL number:  0.25E+00 at (  29,   1,  13)
       Max divergence:  0.13E-12 at (   1,   1,   4)
       Min divergence: -0.81E-12 at (   1,   1,   1)
       Max VN number:   0.36E+00 at (   1,   1,   1)
       Mesh    2
       Max CFL number:  0.25E+00 at (  13,   1,  29)
       Max divergence:  0.91E-12 at (  31,   1,   1)
       Min divergence: -0.86E-13 at (  11,   1,  25)
       Max VN number:   0.36E+00 at (  32,   1,   1)
       Mesh    3
       Max CFL number:  0.25E+00 at (  13,   1,  29)
       Max divergence:  0.50E-12 at (   1,   1,  30)
       Min divergence: -0.21E-11 at (   1,   1,  32)
       Max VN number:   0.36E+00 at (   1,   1,  32)
       Mesh    4
       Max CFL number:  0.25E+00 at (  29,   1,  13)
       Max divergence:  0.23E-11 at (  31,   1,  32)
       Min divergence: -0.32E-11 at (  32,   1,  32)
       Max VN number:   0.36E+00 at (  32,   1,  32)
 
       Time Step      90   July 15, 2020  16:46:03
       Step Size:    0.625E-02 s, Total Time:       0.52 s
       Pressure Iterations:      1
       Maximum Velocity Error:  0.44E-15 on Mesh   2 at (  25   1  33)
       Maximum Pressure Error:  0.23E-08 on Mesh   4 at (  32   1  32)
       ScaRC: iterations    90, residual  0.89E-14, convergence rate   0.65E+00
       ---------------------------------------------------------------
       Mesh    1
       Max CFL number:  0.25E+00 at (  30,   1,  14)
       Max divergence:  0.14E-12 at (   1,   1,   3)
       Min divergence: -0.62E-12 at (   1,   1,   1)
       Max VN number:   0.37E+00 at (   2,   1,   1)
       Mesh    2
       Max CFL number:  0.25E+00 at (  14,   1,  30)
       Max divergence:  0.75E-12 at (  32,   1,   1)
       Min divergence: -0.78E-13 at (  17,   1,  21)
       Max VN number:   0.37E+00 at (  32,   1,   1)
       Mesh    3
       Max CFL number:  0.25E+00 at (  14,   1,  30)
       Max divergence:  0.42E-12 at (   1,   1,  30)
       Min divergence: -0.17E-11 at (   1,   1,  32)
       Max VN number:   0.37E+00 at (   1,   1,  32)
       Mesh    4
       Max CFL number:  0.25E+00 at (  30,   1,  14)
       Max divergence:  0.18E-11 at (  31,   1,  32)
       Min divergence: -0.26E-11 at (  32,   1,  32)
       Max VN number:   0.37E+00 at (  32,   1,  32)
 
       Time Step     100   July 15, 2020  16:46:04
       Step Size:    0.628E-02 s, Total Time:       0.58 s
       Pressure Iterations:      1
       Maximum Velocity Error:  0.44E-15 on Mesh   1 at (  33   1  12)
       Maximum Pressure Error:  0.15E-08 on Mesh   4 at (  32   1  32)
       ScaRC: iterations    90, residual  0.66E-14, convergence rate   0.65E+00
       ---------------------------------------------------------------
       Mesh    1
       Max CFL number:  0.25E+00 at (  30,   1,  15)
       Max divergence:  0.14E-12 at (   1,   1,   3)
       Min divergence: -0.49E-12 at (   2,   1,   1)
       Max VN number:   0.37E+00 at (   3,   1,   1)
       Mesh    2
       Max CFL number:  0.25E+00 at (  15,   1,  30)
       Max divergence:  0.58E-12 at (  32,   1,   1)
       Min divergence: -0.72E-13 at (  17,   1,   1)
       Max VN number:   0.37E+00 at (  32,   1,   1)
       Mesh    3
       Max CFL number:  0.25E+00 at (  15,   1,  30)
       Max divergence:  0.34E-12 at (   1,   1,  30)
       Min divergence: -0.13E-11 at (   1,   1,  32)
       Max VN number:   0.37E+00 at (   1,   1,  32)
       Mesh    4
       Max CFL number:  0.25E+00 at (  30,   1,  15)
       Max divergence:  0.12E-11 at (  31,   1,  32)
       Min divergence: -0.20E-11 at (  32,   1,  32)
       Max VN number:   0.37E+00 at (  32,   1,  32)
 
       Time Step     200   July 15, 2020  16:46:12
       Step Size:    0.666E-02 s, Total Time:       1.20 s
       Pressure Iterations:      1
       Maximum Velocity Error:  0.22E-15 on Mesh   1 at (  28   1   0)
       Maximum Pressure Error:  0.52E-09 on Mesh   4 at (  32   1  32)
       ScaRC: iterations    88, residual  0.81E-14, convergence rate   0.65E+00
       ---------------------------------------------------------------
       Mesh    1
       Max CFL number:  0.25E+00 at (  21,   1,   4)
       Max divergence:  0.12E-12 at (   1,   1,   1)
       Min divergence: -0.86E-13 at (  15,   1,   8)
       Max VN number:   0.39E+00 at (  15,   1,   9)
       Mesh    2
       Max CFL number:  0.25E+00 at (   4,   1,  21)
       Max divergence:  0.43E-13 at (   4,   1,   1)
       Min divergence: -0.13E-12 at (  31,   1,   1)
       Max VN number:   0.39E+00 at (   1,   1,  24)
       Mesh    3
       Max CFL number:  0.25E+00 at (   4,   1,  21)
       Max divergence:  0.31E-12 at (   1,   1,  32)
       Min divergence: -0.91E-13 at (   1,   1,  30)
       Max VN number:   0.39E+00 at (  15,   1,  32)
       Mesh    4
       Max CFL number:  0.25E+00 at (  21,   1,   4)
       Max divergence:  0.55E-12 at (  32,   1,  32)
       Min divergence: -0.39E-12 at (  31,   1,  32)
       Max VN number:   0.39E+00 at (  32,   1,   1)
 
       Time Step     300   July 15, 2020  16:46:24
       Step Size:    0.685E-02 s, Total Time:       1.87 s
       Pressure Iterations:      1
       Maximum Velocity Error:  0.22E-15 on Mesh   1 at (   0   1  20)
       Maximum Pressure Error:  0.47E-09 on Mesh   4 at (  32   1  32)
       ScaRC: iterations    88, residual  0.75E-14, convergence rate   0.65E+00
       ---------------------------------------------------------------
       Mesh    1
       Max CFL number:  0.24E+00 at (  28,   1,  11)
       Max divergence:  0.80E-13 at (   1,   1,   1)
       Min divergence: -0.49E-13 at (  24,   1,  18)
       Max VN number:   0.40E+00 at (  23,   1,  19)
       Mesh    2
       Max CFL number:  0.24E+00 at (  11,   1,  28)
       Max divergence:  0.15E-12 at (  32,   1,   1)
       Min divergence: -0.48E-13 at (  31,   1,   1)
       Max VN number:   0.40E+00 at (   1,   1,  25)
       Mesh    3
       Max CFL number:  0.24E+00 at (  11,   1,  28)
       Max divergence:  0.40E-13 at (  25,   1,   5)
       Min divergence: -0.10E-12 at (   1,   1,  31)
       Max VN number:   0.40E+00 at (  28,   1,   1)
       Mesh    4
       Max CFL number:  0.24E+00 at (  28,   1,  11)
       Max divergence:  0.32E-12 at (  32,   1,  32)
       Min divergence: -0.37E-12 at (  32,   1,  31)
       Max VN number:   0.40E+00 at (   1,   1,   1)
 
       Time Step     400   July 15, 2020  16:46:38
       Step Size:    0.685E-02 s, Total Time:       2.55 s
       Pressure Iterations:      1
       Maximum Velocity Error:  0.44E-15 on Mesh   4 at (  33   1   8)
       Maximum Pressure Error:  0.11E-08 on Mesh   4 at (  32   1  32)
       ScaRC: iterations    89, residual  0.89E-14, convergence rate   0.65E+00
       ---------------------------------------------------------------
       Mesh    1
       Max CFL number:  0.23E+00 at (  18,   1,   3)
       Max divergence:  0.11E-12 at (   2,   1,   1)
       Min divergence: -0.11E-12 at (   1,   1,   1)
       Max VN number:   0.40E+00 at (  26,   1,  23)
       Mesh    2
       Max CFL number:  0.23E+00 at (   3,   1,  18)
       Max divergence:  0.12E-12 at (  31,   1,   1)
       Min divergence: -0.28E-12 at (  32,   1,   1)
       Max VN number:   0.40E+00 at (  32,   1,   1)
       Mesh    3
       Max CFL number:  0.23E+00 at (   3,   1,  18)
       Max divergence:  0.36E-12 at (   1,   1,  32)
       Min divergence: -0.53E-13 at (   1,   1,  17)
       Max VN number:   0.40E+00 at (   1,   1,  32)
       Mesh    4
       Max CFL number:  0.23E+00 at (  18,   1,   3)
       Max divergence:  0.78E-12 at (  32,   1,  31)
       Min divergence: -0.53E-12 at (  32,   1,  32)
       Max VN number:   0.40E+00 at (  32,   1,  32)
 
       Time Step     500   July 15, 2020  16:46:52
       Step Size:    0.685E-02 s, Total Time:       3.24 s
       Pressure Iterations:      1
       Maximum Velocity Error:  0.22E-15 on Mesh   1 at (   0   1   1)
       Maximum Pressure Error:  0.24E-08 on Mesh   4 at (  32   1  32)
       ScaRC: iterations    93, residual  0.37E-14, convergence rate   0.65E+00
       ---------------------------------------------------------------
       Mesh    1
       Max CFL number:  0.22E+00 at (  25,   1,  10)
       Max divergence:  0.68E-13 at (   5,   1,   1)
       Min divergence: -0.72E-12 at (   1,   1,   1)
       Max VN number:   0.40E+00 at (   1,   1,   1)
       Mesh    2
       Max CFL number:  0.22E+00 at (  10,   1,  25)
       Max divergence:  0.54E-12 at (  31,   1,   1)
       Min divergence: -0.35E-12 at (  32,   1,   1)
       Max VN number:   0.40E+00 at (  32,   1,   1)
       Mesh    3
       Max CFL number:  0.22E+00 at (  10,   1,  25)
       Max divergence:  0.52E-12 at (   1,   1,  31)
       Min divergence: -0.69E-12 at (   1,   1,  32)
       Max VN number:   0.40E+00 at (   1,   1,  32)
       Mesh    4
       Max CFL number:  0.22E+00 at (  25,   1,  10)
       Max divergence:  0.18E-11 at (  31,   1,  32)
       Min divergence: -0.27E-11 at (  32,   1,  32)
       Max VN number:   0.40E+00 at (  32,   1,  32)
 
       Time Step     600   July 15, 2020  16:47:05
       Step Size:    0.685E-02 s, Total Time:       3.92 s
       Pressure Iterations:      1
       Maximum Velocity Error:  0.22E-15 on Mesh   1 at (  18   1   0)
       Maximum Pressure Error:  0.50E-10 on Mesh   4 at (  32   1  32)
       ScaRC: iterations    88, residual  0.33E-14, convergence rate   0.65E+00
       ---------------------------------------------------------------
       Mesh    1
       Max CFL number:  0.21E+00 at (  32,   1,  17)
       Max divergence:  0.57E-13 at (  17,   1,   6)
       Min divergence: -0.98E-13 at (   4,   1,   3)
       Max VN number:   0.40E+00 at (   7,   1,   6)
       Mesh    2
       Max CFL number:  0.21E+00 at (  17,   1,  32)
       Max divergence:  0.51E-13 at (  31,   1,  14)
       Min divergence: -0.39E-13 at (  15,   1,   7)
       Max VN number:   0.40E+00 at (   1,   1,  25)
       Mesh    3
       Max CFL number:  0.21E+00 at (  17,   1,  32)
       Max divergence:  0.59E-13 at (   9,   1,  30)
       Min divergence: -0.92E-13 at (   1,   1,  32)
       Max VN number:   0.40E+00 at (   4,   1,  32)
       Mesh    4
       Max CFL number:  0.21E+00 at (  32,   1,  17)
       Max divergence:  0.45E-13 at (  31,   1,  30)
       Min divergence: -0.11E-12 at (  32,   1,  32)
       Max VN number:   0.40E+00 at (   2,   1,   1)
 
       Time Step     700   July 15, 2020  16:47:23
       Step Size:    0.685E-02 s, Total Time:       4.61 s
       Pressure Iterations:      1
       Maximum Velocity Error:  0.22E-15 on Mesh   1 at (  23   1   0)
       Maximum Pressure Error:  0.36E-10 on Mesh   4 at (  32   1  32)
       ScaRC: iterations    85, residual  0.71E-14, convergence rate   0.65E+00
       ---------------------------------------------------------------
       Mesh    1
       Max CFL number:  0.20E+00 at (  24,   1,   7)
       Max divergence:  0.51E-13 at (   1,   1,   2)
       Min divergence: -0.45E-13 at (  16,   1,  12)
       Max VN number:   0.40E+00 at (  30,   1,  28)
       Mesh    2
       Max CFL number:  0.20E+00 at (   7,   1,  24)
       Max divergence:  0.38E-13 at (  31,   1,  18)
       Min divergence: -0.40E-13 at (  22,   1,  12)
       Max VN number:   0.40E+00 at (   1,   1,  28)
       Mesh    3
       Max CFL number:  0.20E+00 at (   7,   1,  24)
       Max divergence:  0.41E-13 at (  26,   1,  31)
       Min divergence: -0.41E-13 at (  18,   1,   9)
       Max VN number:   0.40E+00 at (  32,   1,   1)
       Mesh    4
       Max CFL number:  0.20E+00 at (  24,   1,   7)
       Max divergence:  0.64E-13 at (  32,   1,  32)
       Min divergence: -0.46E-13 at (  31,   1,  32)
       Max VN number:   0.40E+00 at (   1,   1,   1)
 
       Time Step     800   July 15, 2020  16:47:39
       Step Size:    0.685E-02 s, Total Time:       5.29 s
       Pressure Iterations:      1
       Maximum Velocity Error:  0.22E-15 on Mesh   1 at (   3   1   0)
       Maximum Pressure Error:  0.14E-09 on Mesh   4 at (  32   1  32)
       ScaRC: iterations    87, residual  0.75E-14, convergence rate   0.65E+00
       ---------------------------------------------------------------
       Mesh    1
       Max CFL number:  0.19E+00 at (  31,   1,  14)
       Max divergence:  0.73E-13 at (   1,   1,   1)
       Min divergence: -0.36E-13 at (  15,   1,  16)
       Max VN number:   0.40E+00 at (  31,   1,  29)
       Mesh    2
       Max CFL number:  0.19E+00 at (  14,   1,  31)
       Max divergence:  0.62E-13 at (  32,   1,   1)
       Min divergence: -0.38E-13 at (  22,   1,  12)
       Max VN number:   0.40E+00 at (   1,   1,  28)
       Mesh    3
       Max CFL number:  0.19E+00 at (  14,   1,  31)
       Max divergence:  0.42E-13 at (  26,   1,  31)
       Min divergence: -0.37E-13 at (  30,   1,  16)
       Max VN number:   0.40E+00 at (  32,   1,   1)
       Mesh    4
       Max CFL number:  0.19E+00 at (  31,   1,  14)
       Max divergence:  0.17E-12 at (  32,   1,  32)
       Min divergence: -0.93E-13 at (  31,   1,  32)
       Max VN number:   0.40E+00 at (   1,   1,   1)
 
       Time Step     900   July 15, 2020  16:47:55
       Step Size:    0.685E-02 s, Total Time:       5.98 s
       Pressure Iterations:      1
       Maximum Velocity Error:  0.22E-15 on Mesh   1 at (   0   1  31)
       Maximum Pressure Error:  0.68E-09 on Mesh   4 at (  32   1  32)
       ScaRC: iterations    89, residual  0.50E-14, convergence rate   0.65E+00
       ---------------------------------------------------------------
       Mesh    1
       Max CFL number:  0.18E+00 at (  21,   1,   6)
       Max divergence:  0.47E-13 at (   6,   1,   2)
       Min divergence: -0.13E-12 at (   1,   1,   1)
       Max VN number:   0.40E+00 at (  31,   1,  29)
       Mesh    2
       Max CFL number:  0.18E+00 at (   6,   1,  21)
       Max divergence:  0.12E-12 at (  31,   1,   1)
       Min divergence: -0.13E-12 at (  32,   1,   1)
       Max VN number:   0.40E+00 at (  32,   1,   1)
       Mesh    3
       Max CFL number:  0.18E+00 at (   6,   1,  21)
       Max divergence:  0.15E-12 at (   1,   1,  31)
       Min divergence: -0.50E-13 at (  23,   1,  29)
       Max VN number:   0.40E+00 at (   1,   1,  32)
       Mesh    4
       Max CFL number:  0.18E+00 at (  21,   1,   6)
       Max divergence:  0.51E-12 at (  32,   1,  31)
       Min divergence: -0.57E-12 at (  32,   1,  32)
       Max VN number:   0.40E+00 at (  32,   1,  32)
 
       Time Step     945   July 15, 2020  16:48:03
       Step Size:    0.624E-02 s, Total Time:       6.28 s
       Pressure Iterations:      1
       Maximum Velocity Error:  0.22E-15 on Mesh   1 at (   6   1   0)
       Maximum Pressure Error:  0.75E-09 on Mesh   4 at (  32   1  32)
       ScaRC: iterations    88, residual  0.46E-14, convergence rate   0.64E+00
       ---------------------------------------------------------------
       Mesh    1
       Max CFL number:  0.17E+00 at (  24,   1,   9)
       Max divergence:  0.44E-13 at (   1,   1,   7)
       Min divergence: -0.20E-12 at (   1,   1,   1)
       Max VN number:   0.36E+00 at (   1,   1,   1)
       Mesh    2
       Max CFL number:  0.17E+00 at (   9,   1,  24)
       Max divergence:  0.18E-12 at (  31,   1,   1)
       Min divergence: -0.18E-12 at (  32,   1,   1)
       Max VN number:   0.36E+00 at (  32,   1,   1)
       Mesh    3
       Max CFL number:  0.17E+00 at (   9,   1,  24)
       Max divergence:  0.17E-12 at (   1,   1,  31)
       Min divergence: -0.18E-12 at (   1,   1,  32)
       Max VN number:   0.36E+00 at (   1,   1,  32)
       Mesh    4
       Max CFL number:  0.17E+00 at (  24,   1,   9)
       Max divergence:  0.51E-12 at (  32,   1,  31)
       Min divergence: -0.91E-12 at (  32,   1,  32)
       Max VN number:   0.36E+00 at (  32,   1,  32)
 


 Time Stepping Wall Clock Time (s):      127.407
 Total Elapsed Wall Clock Time (s):      127.862

STOP: FDS completed successfully (CHID: ns2d_4mesh_64_scarc_nupt1)
