
 Fire Dynamics Simulator

 Current Date     : July 15, 2020  16:45:55
 Revision         : FDS6.7.4-1001-g3529ee9-master
 Revision Date    : Wed Jul 15 15:36:03 2020 +0200
 Compiler         : Intel ifort 19.0.5.281
 Compilation Date : Jul 15, 2020 15:36:20

 MPI Enabled;    Number of MPI Processes:       4
 OpenMP Enabled; Number of OpenMP Threads:      4

 MPI version: 3.1
 MPI library version: Intel(R) MPI Library 2018 Update 1 for Linux* OS


 Job TITLE        : Analytical solution to the 2d Navier-Stokes equations
 Job ID string    : ns2d_4mesh_32_scarc


 Grid Dimensions, Mesh     1

   Cells in the X Direction            16
   Cells in the Y Direction             1
   Cells in the Z Direction            16
   Number of Grid Cells               256


 Physical Dimensions, Mesh     1

   Length (m)                       3.142
   Width  (m)                       0.100
   Height (m)                       3.142
   Initial Time Step (s)            0.031

 Grid Dimensions, Mesh     2

   Cells in the X Direction            16
   Cells in the Y Direction             1
   Cells in the Z Direction            16
   Number of Grid Cells               256


 Physical Dimensions, Mesh     2

   Length (m)                       3.142
   Width  (m)                       0.100
   Height (m)                       3.142
   Initial Time Step (s)            0.031

 Grid Dimensions, Mesh     3

   Cells in the X Direction            16
   Cells in the Y Direction             1
   Cells in the Z Direction            16
   Number of Grid Cells               256


 Physical Dimensions, Mesh     3

   Length (m)                       3.142
   Width  (m)                       0.100
   Height (m)                       3.142
   Initial Time Step (s)            0.031

 Grid Dimensions, Mesh     4

   Cells in the X Direction            16
   Cells in the Y Direction             1
   Cells in the Z Direction            16
   Number of Grid Cells               256


 Physical Dimensions, Mesh     4

   Length (m)                       3.142
   Width  (m)                       0.100
   Height (m)                       3.142
   Initial Time Step (s)            0.031

Total Number of Grid Cells          1024


 Miscellaneous Parameters

   Simulation Start Time (s)          0.0
   Simulation End Time (s)            6.3
   Ambient Temperature (C):         20.00


 Mass Fraction Transformation Matrix to Convert Species Mixtures (Columns) to Primitive Species (Rows)

                         BACKGROU
   BACKGROUND            1.000000


 Primitive Species Information

   BACKGROUND
   Gas Species
   Molecular Weight (g/mol)            24.05515
   Ambient Density (kg/m^3)            1.000
   Enthalpy of Formation (J/kg)        0.00E+00


 Tracked (Lumped) Species Information

   BACKGROUND
   Molecular Weight (g/mol)            24.05515
   Ambient Density (kg/m^3)            1.000
   Initial Mass Fraction               1.000
   Enthalpy of Formation (J/kg)      0.00E+00

   Sub Species                    Mass Fraction     Mole Fraction
   BACKGROUND                     1.000000E+00      1.000000E+00
 
     Viscosity (kg/m/s) Ambient,  293 K:  1.00E-10
                                  500 K:  1.00E-10
                                 1000 K:  1.00E-10
                                 1500 K:  1.00E-10
   Therm. Cond. (W/m/K) Ambient,  293 K:  1.70E-07
                                  500 K:  1.70E-07
                                 1000 K:  1.70E-07
                                 1500 K:  1.70E-07
        Enthalpy (J/kg) Ambient,  293 K:  3.55E+05
                                  500 K:  6.05E+05
                                 1000 K:  1.21E+06
                                 1500 K:  1.81E+06
    Spec. Heat (J/kg/K) Ambient,  293 K:  1.21E+03
                                  500 K:  1.21E+03
                                 1000 K:  1.21E+03
                                 1500 K:  1.21E+03
   Diff. Coeff. (m^2/s) Ambient,  293 K:  2.14E-05
                                  500 K:  5.32E-05
                                 1000 K:  1.69E-04
                                 1500 K:  3.31E-04


 Material Information


 Surface Conditions

   0 INERT (DEFAULT)

   1 OPEN
     Passive Vent to Atmosphere

   2 MIRROR
     Symmetry Plane

   3 INTERPOLATED

   4 PERIODIC

   5 HVAC

   6 MASSLESS TRACER

   7 DROPLET

   8 EVACUATION_OUTFLOW
     Normal Velocity (m/s)         0.000

   9 MASSLESS TARGET

  10 PERIODIC WIND


 Device Coordinates

     1 Coords:      3.141493      0.000000      3.141493, Make: null, ID: UVEL, Quantity: U-VELOCITY
     2 Coords:      3.141493      0.000000      3.141493, Make: null, ID: PRES, Quantity: PRESSURE
     3 Coords:      3.141493      0.000000      3.141493, Make: null, ID: VISC, Quantity: VISCOSITY
     4 Coords:      0.001963      0.000000      0.001963, Make: null, ID: scarc-iter, Quantity: SCARC ITERATIONS
     5 Coords:      0.001963      0.000000      0.001963, Make: null, ID: scarc-rate, Quantity: SCARC CONVERGENCE RATE
     6 Coords:      0.001963      0.000000      0.001963, Make: null, ID: scarc-res, Quantity: SCARC RESIDUAL


 Slice File Information, Mesh     1

   Sampling Interval (s)             0.006

   1 Nodes:   0  16   1   1   0  16, Quantity: VELOCITY
   2 Nodes:   0  16   1   1   0  16, Quantity: U-VELOCITY
   3 Nodes:   0  16   1   1   0  16, Quantity: W-VELOCITY
   4 Nodes:   0  16   1   1   0  16, Quantity: DENSITY
   5 Nodes:   0  16   1   1   0  16, Quantity: H
   6 Nodes:   0  16   1   1   0  16, Quantity: PRESSURE
   7 Nodes:   0  16   1   1   0  16, Quantity: VISCOSITY
   8 Nodes:   0  16   1   1   0  16, Quantity: DIVERGENCE


 Radiation Model Information

   Number of control angles   60
   Time step increment         2
   Angle increment             4
   Phi band   N_theta Solid angle
     1:       60     0.209


 SCARC Information

   Discretization             STRUCTURED
   Global solver                  KRYLOV
   Storage technique             COMPACT
   Preconditioner                PARDISO
   MKL precision                  DOUBLE
   Max iterations                   1000
   Stopping accuracy            0.10E-13
 
 

 Run Time Diagnostics

       Time Step       1   July 15, 2020  16:45:55
       Step Size:    0.106E-01 s, Total Time:       0.01 s
       Pressure Iterations:      1
       Maximum Velocity Error:  0.22E-15 on Mesh   1 at (  17   1  15)
       Maximum Pressure Error:  0.33E-08 on Mesh   4 at (  16   1  16)
       ScaRC: iterations    62, residual  0.65E-14, convergence rate   0.53E+00
       ---------------------------------------------------------------
       Mesh    1
       Max CFL number:  0.23E+00 at (  12,   1,   5)
       Max divergence:  0.37E-13 at (  13,   1,  13)
       Min divergence: -0.16E-13 at (  16,   1,  15)
       Max VN number:   0.15E-09 at (  16,   1,  16)
       Mesh    2
       Max CFL number:  0.23E+00 at (   5,   1,  12)
       Max divergence:  0.72E-13 at (   8,   1,  13)
       Min divergence: -0.13E-13 at (   2,   1,  16)
       Max VN number:   0.15E-09 at (  16,   1,  16)
       Mesh    3
       Max CFL number:  0.23E+00 at (   5,   1,  12)
       Max divergence:  0.73E-13 at (  10,   1,  11)
       Min divergence: -0.14E-13 at (  16,   1,  10)
       Max VN number:   0.15E-09 at (  16,   1,  16)
       Mesh    4
       Max CFL number:  0.23E+00 at (  12,   1,   5)
       Max divergence:  0.93E-13 at (  11,   1,  11)
       Min divergence: -0.17E-10 at (  16,   1,  16)
       Max VN number:   0.15E-09 at (  16,   1,  16)
 
       Time Step       2   July 15, 2020  16:45:55
       Step Size:    0.116E-01 s, Total Time:       0.02 s
       Pressure Iterations:      1
       Maximum Velocity Error:  0.44E-15 on Mesh   1 at (   4   1   0)
       Maximum Pressure Error:  0.32E-08 on Mesh   4 at (  16   1  16)
       ScaRC: iterations    62, residual  0.29E-14, convergence rate   0.52E+00
       ---------------------------------------------------------------
       Mesh    1
       Max CFL number:  0.25E+00 at (  12,   1,   5)
       Max divergence:  0.38E-13 at (  13,   1,  10)
       Min divergence: -0.14E-13 at (  12,   1,  15)
       Max VN number:   0.17E-09 at (  13,   1,  13)
       Mesh    2
       Max CFL number:  0.25E+00 at (   5,   1,  12)
       Max divergence:  0.71E-13 at (   8,   1,  13)
       Min divergence: -0.14E-13 at (   6,   1,  15)
       Max VN number:   0.17E-09 at (   8,   1,  13)
       Mesh    3
       Max CFL number:  0.25E+00 at (   5,   1,  12)
       Max divergence:  0.75E-13 at (   6,   1,  11)
       Min divergence: -0.18E-13 at (  16,   1,   7)
       Max VN number:   0.17E-09 at (  10,   1,  11)
       Mesh    4
       Max CFL number:  0.25E+00 at (  12,   1,   5)
       Max divergence:  0.11E-12 at (  11,   1,   8)
       Min divergence: -0.19E-10 at (  16,   1,  16)
       Max VN number:   0.17E-09 at (  11,   1,  11)
 
       Time Step       3   July 15, 2020  16:45:55
       Step Size:    0.106E-01 s, Total Time:       0.03 s
       Pressure Iterations:      1
       Maximum Velocity Error:  0.44E-15 on Mesh   1 at (  11   1   0)
       Maximum Pressure Error:  0.32E-08 on Mesh   4 at (  16   1  16)
       ScaRC: iterations    62, residual  0.58E-14, convergence rate   0.53E+00
       ---------------------------------------------------------------
       Mesh    1
       Max CFL number:  0.23E+00 at (  12,   1,   5)
       Max divergence:  0.35E-13 at (  13,   1,  10)
       Min divergence: -0.14E-13 at (  16,   1,  15)
       Max VN number:   0.15E-09 at (  13,   1,  13)
       Mesh    2
       Max CFL number:  0.23E+00 at (   5,   1,  12)
       Max divergence:  0.68E-13 at (   8,   1,  13)
       Min divergence: -0.16E-13 at (   6,   1,  15)
       Max VN number:   0.15E-09 at (   8,   1,  13)
       Mesh    3
       Max CFL number:  0.23E+00 at (   5,   1,  12)
       Max divergence:  0.62E-13 at (  10,   1,  11)
       Min divergence: -0.13E-13 at (  16,   1,  16)
       Max VN number:   0.15E-09 at (  10,   1,  11)
       Mesh    4
       Max CFL number:  0.23E+00 at (  12,   1,   5)
       Max divergence:  0.95E-13 at (  11,   1,   8)
       Min divergence: -0.17E-10 at (  16,   1,  16)
       Max VN number:   0.15E-09 at (  11,   1,   8)
 
       Time Step       4   July 15, 2020  16:45:55
       Step Size:    0.116E-01 s, Total Time:       0.04 s
       Pressure Iterations:      1
       Maximum Velocity Error:  0.89E-15 on Mesh   1 at (  12   1   0)
       Maximum Pressure Error:  0.32E-08 on Mesh   4 at (  16   1  16)
       ScaRC: iterations    62, residual  0.64E-14, convergence rate   0.53E+00
       ---------------------------------------------------------------
       Mesh    1
       Max CFL number:  0.25E+00 at (  12,   1,   5)
       Max divergence:  0.42E-13 at (  13,   1,  10)
       Min divergence: -0.17E-13 at (  16,   1,  16)
       Max VN number:   0.17E-09 at (  13,   1,  13)
       Mesh    2
       Max CFL number:  0.25E+00 at (   5,   1,  12)
       Max divergence:  0.71E-13 at (   8,   1,  14)
       Min divergence: -0.16E-13 at (   3,   1,  15)
       Max VN number:   0.17E-09 at (   8,   1,  13)
       Mesh    3
       Max CFL number:  0.25E+00 at (   5,   1,  12)
       Max divergence:  0.69E-13 at (  13,   1,  11)
       Min divergence: -0.11E-13 at (  16,   1,   6)
       Max VN number:   0.17E-09 at (   7,   1,   8)
       Mesh    4
       Max CFL number:  0.25E+00 at (  12,   1,   5)
       Max divergence:  0.10E-12 at (  11,   1,   8)
       Min divergence: -0.18E-10 at (  16,   1,  16)
       Max VN number:   0.17E-09 at (  11,   1,  11)
 
       Time Step       5   July 15, 2020  16:45:56
       Step Size:    0.106E-01 s, Total Time:       0.05 s
       Pressure Iterations:      1
       Maximum Velocity Error:  0.44E-15 on Mesh   1 at (   5   1   0)
       Maximum Pressure Error:  0.32E-08 on Mesh   4 at (  16   1  16)
       ScaRC: iterations    62, residual  0.74E-14, convergence rate   0.53E+00
       ---------------------------------------------------------------
       Mesh    1
       Max CFL number:  0.22E+00 at (  13,   1,   5)
       Max divergence:  0.35E-13 at (  13,   1,  10)
       Min divergence: -0.16E-13 at (  16,   1,  15)
       Max VN number:   0.15E-09 at (  13,   1,  13)
       Mesh    2
       Max CFL number:  0.22E+00 at (   5,   1,  13)
       Max divergence:  0.62E-13 at (   8,   1,   7)
       Min divergence: -0.21E-13 at (   6,   1,  16)
       Max VN number:   0.15E-09 at (   8,   1,  13)
       Mesh    3
       Max CFL number:  0.22E+00 at (   5,   1,  13)
       Max divergence:  0.67E-13 at (   3,   1,  11)
       Min divergence: -0.12E-13 at (  15,   1,  10)
       Max VN number:   0.15E-09 at (  10,   1,  11)
       Mesh    4
       Max CFL number:  0.22E+00 at (  13,   1,   5)
       Max divergence:  0.97E-13 at (  11,   1,   8)
       Min divergence: -0.17E-10 at (  16,   1,  16)
       Max VN number:   0.15E-09 at (  11,   1,  11)
 
       Time Step       6   July 15, 2020  16:45:56
       Step Size:    0.116E-01 s, Total Time:       0.07 s
       Pressure Iterations:      1
       Maximum Velocity Error:  0.44E-15 on Mesh   1 at (   5   1   0)
       Maximum Pressure Error:  0.31E-08 on Mesh   4 at (  16   1  16)
       ScaRC: iterations    62, residual  0.88E-14, convergence rate   0.53E+00
       ---------------------------------------------------------------
       Mesh    1
       Max CFL number:  0.25E+00 at (  13,   1,   5)
       Max divergence:  0.38E-13 at (  13,   1,   7)
       Min divergence: -0.16E-13 at (  16,   1,  15)
       Max VN number:   0.17E-09 at (  13,   1,  13)
       Mesh    2
       Max CFL number:  0.25E+00 at (   5,   1,  13)
       Max divergence:  0.71E-13 at (  11,   1,  13)
       Min divergence: -0.21E-13 at (   9,   1,  15)
       Max VN number:   0.17E-09 at (  11,   1,  10)
       Mesh    3
       Max CFL number:  0.25E+00 at (   5,   1,  13)
       Max divergence:  0.70E-13 at (   2,   1,   8)
       Min divergence: -0.11E-13 at (  16,   1,  13)
       Max VN number:   0.17E-09 at (   7,   1,   8)
       Mesh    4
       Max CFL number:  0.25E+00 at (  13,   1,   5)
       Max divergence:  0.98E-13 at (  11,   1,   8)
       Min divergence: -0.18E-10 at (  16,   1,  16)
       Max VN number:   0.17E-09 at (  11,   1,  11)
 
       Time Step       7   July 15, 2020  16:45:56
       Step Size:    0.106E-01 s, Total Time:       0.08 s
       Pressure Iterations:      1
       Maximum Velocity Error:  0.44E-15 on Mesh   1 at (   7   1   0)
       Maximum Pressure Error:  0.31E-08 on Mesh   4 at (  16   1  16)
       ScaRC: iterations    64, residual  0.38E-14, convergence rate   0.54E+00
       ---------------------------------------------------------------
       Mesh    1
       Max CFL number:  0.22E+00 at (  13,   1,   5)
       Max divergence:  0.30E-13 at (  13,   1,  13)
       Min divergence: -0.18E-13 at (  15,   1,  12)
       Max VN number:   0.15E-09 at (  13,   1,  13)
       Mesh    2
       Max CFL number:  0.22E+00 at (   5,   1,  13)
       Max divergence:  0.66E-13 at (  11,   1,  13)
       Min divergence: -0.14E-13 at (  12,   1,  15)
       Max VN number:   0.15E-09 at (  11,   1,  13)
       Mesh    3
       Max CFL number:  0.22E+00 at (   5,   1,  13)
       Max divergence:  0.63E-13 at (   7,   1,  11)
       Min divergence: -0.95E-14 at (  16,   1,  12)
       Max VN number:   0.15E-09 at (   7,   1,   8)
       Mesh    4
       Max CFL number:  0.22E+00 at (  13,   1,   5)
       Max divergence:  0.93E-13 at (   8,   1,   8)
       Min divergence: -0.16E-10 at (  16,   1,  16)
       Max VN number:   0.15E-09 at (  11,   1,  11)
 
       Time Step       8   July 15, 2020  16:45:56
       Step Size:    0.116E-01 s, Total Time:       0.09 s
       Pressure Iterations:      1
       Maximum Velocity Error:  0.44E-15 on Mesh   1 at (   5   1   0)
       Maximum Pressure Error:  0.30E-08 on Mesh   4 at (  16   1  16)
       ScaRC: iterations    64, residual  0.39E-14, convergence rate   0.54E+00
       ---------------------------------------------------------------
       Mesh    1
       Max CFL number:  0.25E+00 at (  13,   1,   5)
       Max divergence:  0.35E-13 at (  13,   1,  10)
       Min divergence: -0.21E-13 at (  15,   1,   9)
       Max VN number:   0.17E-09 at (  10,   1,  10)
       Mesh    2
       Max CFL number:  0.25E+00 at (   5,   1,  13)
       Max divergence:  0.81E-13 at (   8,   1,  13)
       Min divergence: -0.16E-13 at (   9,   1,  15)
       Max VN number:   0.17E-09 at (  11,   1,  10)
       Mesh    3
       Max CFL number:  0.25E+00 at (   5,   1,  13)
       Max divergence:  0.71E-13 at (   3,   1,   8)
       Min divergence: -0.13E-13 at (  15,   1,  15)
       Max VN number:   0.17E-09 at (   7,   1,   8)
       Mesh    4
       Max CFL number:  0.25E+00 at (  13,   1,   5)
       Max divergence:  0.98E-13 at (  11,   1,   8)
       Min divergence: -0.18E-10 at (  16,   1,  16)
       Max VN number:   0.17E-09 at (  11,   1,  11)
 
       Time Step       9   July 15, 2020  16:45:56
       Step Size:    0.106E-01 s, Total Time:       0.10 s
       Pressure Iterations:      1
       Maximum Velocity Error:  0.44E-15 on Mesh   1 at (   6   1   0)
       Maximum Pressure Error:  0.30E-08 on Mesh   4 at (  16   1  16)
       ScaRC: iterations    64, residual  0.39E-14, convergence rate   0.54E+00
       ---------------------------------------------------------------
       Mesh    1
       Max CFL number:  0.22E+00 at (  13,   1,   5)
       Max divergence:  0.34E-13 at (  13,   1,  10)
       Min divergence: -0.16E-13 at (  15,   1,  16)
       Max VN number:   0.15E-09 at (  13,   1,  10)
       Mesh    2
       Max CFL number:  0.22E+00 at (   5,   1,  13)
       Max divergence:  0.73E-13 at (   8,   1,  10)
       Min divergence: -0.19E-13 at (  10,   1,  15)
       Max VN number:   0.15E-09 at (  11,   1,  10)
       Mesh    3
       Max CFL number:  0.22E+00 at (   5,   1,  13)
       Max divergence:  0.68E-13 at (   7,   1,  11)
       Min divergence: -0.99E-14 at (  15,   1,   6)
       Max VN number:   0.15E-09 at (   7,   1,   8)
       Mesh    4
       Max CFL number:  0.22E+00 at (  13,   1,   5)
       Max divergence:  0.90E-13 at (   8,   1,   5)
       Min divergence: -0.16E-10 at (  16,   1,  16)
       Max VN number:   0.15E-09 at (   8,   1,  11)
 
       Time Step      10   July 15, 2020  16:45:56
       Step Size:    0.116E-01 s, Total Time:       0.11 s
       Pressure Iterations:      1
       Maximum Velocity Error:  0.44E-15 on Mesh   1 at (   4   1   0)
       Maximum Pressure Error:  0.30E-08 on Mesh   4 at (  16   1  16)
       ScaRC: iterations    64, residual  0.40E-14, convergence rate   0.54E+00
       ---------------------------------------------------------------
       Mesh    1
       Max CFL number:  0.25E+00 at (  13,   1,   5)
       Max divergence:  0.38E-13 at (  13,   1,  10)
       Min divergence: -0.16E-13 at (  16,   1,  16)
       Max VN number:   0.17E-09 at (  13,   1,  13)
       Mesh    2
       Max CFL number:  0.25E+00 at (   5,   1,  13)
       Max divergence:  0.69E-13 at (   8,   1,  13)
       Min divergence: -0.18E-13 at (   7,   1,  15)
       Max VN number:   0.17E-09 at (  11,   1,  10)
       Mesh    3
       Max CFL number:  0.25E+00 at (   5,   1,  13)
       Max divergence:  0.69E-13 at (   3,   1,  11)
       Min divergence: -0.10E-13 at (   1,   1,   9)
       Max VN number:   0.17E-09 at (   7,   1,   8)
       Mesh    4
       Max CFL number:  0.25E+00 at (  13,   1,   5)
       Max divergence:  0.10E-12 at (  11,   1,   8)
       Min divergence: -0.17E-10 at (  16,   1,  16)
       Max VN number:   0.17E-09 at (   8,   1,  11)
 
       Time Step      20   July 15, 2020  16:45:56
       Step Size:    0.116E-01 s, Total Time:       0.22 s
       Pressure Iterations:      1
       Maximum Velocity Error:  0.44E-15 on Mesh   2 at (  14   1  17)
       Maximum Pressure Error:  0.25E-08 on Mesh   4 at (  16   1  16)
       ScaRC: iterations    64, residual  0.42E-14, convergence rate   0.54E+00
       ---------------------------------------------------------------
       Mesh    1
       Max CFL number:  0.25E+00 at (  13,   1,   6)
       Max divergence:  0.32E-13 at (  13,   1,  10)
       Min divergence: -0.20E-13 at (  15,   1,  15)
       Max VN number:   0.17E-09 at (  13,   1,  13)
       Mesh    2
       Max CFL number:  0.25E+00 at (   6,   1,  13)
       Max divergence:  0.60E-13 at (   8,   1,  13)
       Min divergence: -0.20E-13 at (  10,   1,  16)
       Max VN number:   0.17E-09 at (  11,   1,  10)
       Mesh    3
       Max CFL number:  0.25E+00 at (   6,   1,  13)
       Max divergence:  0.62E-13 at (   5,   1,  11)
       Min divergence: -0.11E-13 at (  15,   1,  15)
       Max VN number:   0.17E-09 at (  10,   1,   8)
       Mesh    4
       Max CFL number:  0.25E+00 at (  13,   1,   6)
       Max divergence:  0.84E-13 at (   8,   1,   8)
       Min divergence: -0.14E-10 at (  16,   1,  16)
       Max VN number:   0.17E-09 at (   8,   1,  11)
 
       Time Step      30   July 15, 2020  16:45:56
       Step Size:    0.116E-01 s, Total Time:       0.33 s
       Pressure Iterations:      1
       Maximum Velocity Error:  0.44E-15 on Mesh   1 at (   7   1   0)
       Maximum Pressure Error:  0.19E-08 on Mesh   4 at (  16   1  16)
       ScaRC: iterations    64, residual  0.43E-14, convergence rate   0.54E+00
       ---------------------------------------------------------------
       Mesh    1
       Max CFL number:  0.25E+00 at (  14,   1,   6)
       Max divergence:  0.24E-13 at (  10,   1,  10)
       Min divergence: -0.14E-13 at (  15,   1,  15)
       Max VN number:   0.17E-09 at (  13,   1,  13)
       Mesh    2
       Max CFL number:  0.25E+00 at (   6,   1,  14)
       Max divergence:  0.50E-13 at (   8,   1,  13)
       Min divergence: -0.15E-13 at (  12,   1,  16)
       Max VN number:   0.17E-09 at (  11,   1,  14)
       Mesh    3
       Max CFL number:  0.25E+00 at (   6,   1,  14)
       Max divergence:  0.43E-13 at (   2,   1,  11)
       Min divergence: -0.10E-13 at (  15,   1,  12)
       Max VN number:   0.17E-09 at (  10,   1,   8)
       Mesh    4
       Max CFL number:  0.25E+00 at (  14,   1,   6)
       Max divergence:  0.66E-13 at (  11,   1,   8)
       Min divergence: -0.11E-10 at (  16,   1,  16)
       Max VN number:   0.17E-09 at (   8,   1,  11)
 
       Time Step      40   July 15, 2020  16:45:56
       Step Size:    0.116E-01 s, Total Time:       0.44 s
       Pressure Iterations:      1
       Maximum Velocity Error:  0.44E-15 on Mesh   1 at (   6   1   0)
       Maximum Pressure Error:  0.12E-08 on Mesh   4 at (  16   1  16)
       ScaRC: iterations    64, residual  0.42E-14, convergence rate   0.54E+00
       ---------------------------------------------------------------
       Mesh    1
       Max CFL number:  0.25E+00 at (  14,   1,   7)
       Max divergence:  0.19E-13 at (  13,   1,  10)
       Min divergence: -0.91E-14 at (  15,   1,   8)
       Max VN number:   0.17E-09 at (  13,   1,   1)
       Mesh    2
       Max CFL number:  0.25E+00 at (   7,   1,  14)
       Max divergence:  0.37E-13 at (  11,   1,  13)
       Min divergence: -0.15E-13 at (  10,   1,  15)
       Max VN number:   0.17E-09 at (  11,   1,  14)
       Mesh    3
       Max CFL number:  0.25E+00 at (   7,   1,  14)
       Max divergence:  0.33E-13 at (   4,   1,  11)
       Min divergence: -0.78E-14 at (  16,   1,  15)
       Max VN number:   0.17E-09 at (  10,   1,   8)
       Mesh    4
       Max CFL number:  0.25E+00 at (  14,   1,   7)
       Max divergence:  0.53E-13 at (  11,   1,   5)
       Min divergence: -0.70E-11 at (  16,   1,  16)
       Max VN number:   0.17E-09 at (   8,   1,  11)
 
       Time Step      50   July 15, 2020  16:45:56
       Step Size:    0.116E-01 s, Total Time:       0.55 s
       Pressure Iterations:      1
       Maximum Velocity Error:  0.44E-15 on Mesh   2 at (  12   1  17)
       Maximum Pressure Error:  0.60E-09 on Mesh   4 at (  16   1  16)
       ScaRC: iterations    63, residual  0.90E-14, convergence rate   0.55E+00
       ---------------------------------------------------------------
       Mesh    1
       Max CFL number:  0.25E+00 at (  15,   1,   8)
       Max divergence:  0.13E-13 at (  11,   1,   2)
       Min divergence: -0.78E-14 at (  16,   1,   7)
       Max VN number:   0.17E-09 at (  11,   1,   1)
       Mesh    2
       Max CFL number:  0.25E+00 at (   8,   1,  15)
       Max divergence:  0.25E-13 at (   5,   1,  10)
       Min divergence: -0.13E-13 at (   9,   1,  16)
       Max VN number:   0.17E-09 at (  11,   1,  14)
       Mesh    3
       Max CFL number:  0.25E+00 at (   8,   1,  15)
       Max divergence:  0.24E-13 at (   3,   1,  11)
       Min divergence: -0.66E-14 at (   4,   1,  12)
       Max VN number:   0.17E-09 at (  11,   1,   8)
       Mesh    4
       Max CFL number:  0.25E+00 at (  15,   1,   8)
       Max divergence:  0.34E-13 at (  11,   1,   5)
       Min divergence: -0.35E-11 at (  16,   1,  16)
       Max VN number:   0.17E-09 at (   8,   1,  11)
 
       Time Step      60   July 15, 2020  16:45:57
       Step Size:    0.116E-01 s, Total Time:       0.66 s
       Pressure Iterations:      1
       Maximum Velocity Error:  0.89E-15 on Mesh   1 at (  13   1   0)
       Maximum Pressure Error:  0.96E-10 on Mesh   4 at (  16   1  16)
       ScaRC: iterations    63, residual  0.34E-14, convergence rate   0.54E+00
       ---------------------------------------------------------------
       Mesh    1
       Max CFL number:  0.25E+00 at (  16,   1,   8)
       Max divergence:  0.13E-13 at (  10,   1,   2)
       Min divergence: -0.79E-14 at (   4,   1,   1)
       Max VN number:   0.17E-09 at (  11,   1,   2)
       Mesh    2
       Max CFL number:  0.25E+00 at (   8,   1,  16)
       Max divergence:  0.15E-13 at (   5,   1,  12)
       Min divergence: -0.12E-13 at (   9,   1,  16)
       Max VN number:   0.17E-09 at (  11,   1,  14)
       Mesh    3
       Max CFL number:  0.25E+00 at (   8,   1,  16)
       Max divergence:  0.13E-13 at (   4,   1,  11)
       Min divergence: -0.78E-14 at (   3,   1,  13)
       Max VN number:   0.17E-09 at (  11,   1,   8)
       Mesh    4
       Max CFL number:  0.25E+00 at (  16,   1,   8)
       Max divergence:  0.21E-13 at (  11,   1,   5)
       Min divergence: -0.57E-12 at (  16,   1,  16)
       Max VN number:   0.17E-09 at (   8,   1,  11)
 
       Time Step      70   July 15, 2020  16:45:57
       Step Size:    0.116E-01 s, Total Time:       0.78 s
       Pressure Iterations:      1
       Maximum Velocity Error:  0.44E-15 on Mesh   1 at (  15   1   0)
       Maximum Pressure Error:  0.26E-09 on Mesh   4 at (  16   1  16)
       ScaRC: iterations    63, residual  0.46E-14, convergence rate   0.54E+00
       ---------------------------------------------------------------
       Mesh    1
       Max CFL number:  0.25E+00 at (  16,   1,   9)
       Max divergence:  0.94E-14 at (  11,   1,   3)
       Min divergence: -0.90E-14 at (   2,   1,   3)
       Max VN number:   0.17E-09 at (  11,   1,   2)
       Mesh    2
       Max CFL number:  0.25E+00 at (   9,   1,  16)
       Max divergence:  0.12E-13 at (   5,   1,  12)
       Min divergence: -0.15E-13 at (   8,   1,   2)
       Max VN number:   0.17E-09 at (  12,   1,  15)
       Mesh    3
       Max CFL number:  0.25E+00 at (   9,   1,  16)
       Max divergence:  0.90E-14 at (   4,   1,   7)
       Min divergence: -0.12E-13 at (   2,   1,   5)
       Max VN number:   0.17E-09 at (  12,   1,   8)
       Mesh    4
       Max CFL number:  0.25E+00 at (  16,   1,   9)
       Max divergence:  0.15E-11 at (  16,   1,  16)
       Min divergence: -0.18E-13 at (   4,   1,   5)
       Max VN number:   0.17E-09 at (   8,   1,  12)
 
       Time Step      80   July 15, 2020  16:45:57
       Step Size:    0.116E-01 s, Total Time:       0.89 s
       Pressure Iterations:      1
       Maximum Velocity Error:  0.44E-15 on Mesh   1 at (  10   1   0)
       Maximum Pressure Error:  0.47E-09 on Mesh   4 at (  16   1  16)
       ScaRC: iterations    63, residual  0.52E-14, convergence rate   0.54E+00
       ---------------------------------------------------------------
       Mesh    1
       Max CFL number:  0.25E+00 at (   9,   1,   1)
       Max divergence:  0.73E-14 at (  11,   1,   3)
       Min divergence: -0.94E-14 at (  12,   1,   7)
       Max VN number:   0.17E-09 at (  13,   1,   1)
       Mesh    2
       Max CFL number:  0.25E+00 at (   1,   1,   9)
       Max divergence:  0.12E-13 at (   1,   1,  10)
       Min divergence: -0.17E-13 at (   8,   1,   7)
       Max VN number:   0.17E-09 at (  12,   1,  15)
       Mesh    3
       Max CFL number:  0.25E+00 at (   1,   1,   9)
       Max divergence:  0.84E-14 at (   8,   1,  13)
       Min divergence: -0.18E-13 at (   5,   1,   5)
       Max VN number:   0.17E-09 at (   1,   1,  16)
       Mesh    4
       Max CFL number:  0.25E+00 at (   9,   1,   1)
       Max divergence:  0.27E-11 at (  16,   1,  16)
       Min divergence: -0.25E-13 at (   5,   1,   8)
       Max VN number:   0.17E-09 at (  16,   1,  16)
 
       Time Step      90   July 15, 2020  16:45:57
       Step Size:    0.116E-01 s, Total Time:       1.00 s
       Pressure Iterations:      1
       Maximum Velocity Error:  0.44E-15 on Mesh   1 at (  13   1   0)
       Maximum Pressure Error:  0.54E-09 on Mesh   4 at (  16   1  16)
       ScaRC: iterations    63, residual  0.39E-14, convergence rate   0.54E+00
       ---------------------------------------------------------------
       Mesh    1
       Max CFL number:  0.25E+00 at (  10,   1,   1)
       Max divergence:  0.68E-14 at (  11,   1,   6)
       Min divergence: -0.10E-13 at (  12,   1,   7)
       Max VN number:   0.17E-09 at (   1,   1,   1)
       Mesh    2
       Max CFL number:  0.25E+00 at (   1,   1,  10)
       Max divergence:  0.10E-13 at (   1,   1,  10)
       Min divergence: -0.20E-13 at (   8,   1,   3)
       Max VN number:   0.17E-09 at (  12,   1,  15)
       Mesh    3
       Max CFL number:  0.25E+00 at (   1,   1,  10)
       Max divergence:  0.74E-14 at (   2,   1,   7)
       Min divergence: -0.20E-13 at (   8,   1,   8)
       Max VN number:   0.17E-09 at (   1,   1,  16)
       Mesh    4
       Max CFL number:  0.25E+00 at (  10,   1,   1)
       Max divergence:  0.31E-11 at (  16,   1,  16)
       Min divergence: -0.27E-13 at (   5,   1,   8)
       Max VN number:   0.17E-09 at (  16,   1,  16)
 
       Time Step     100   July 15, 2020  16:45:57
       Step Size:    0.116E-01 s, Total Time:       1.11 s
       Pressure Iterations:      1
       Maximum Velocity Error:  0.22E-15 on Mesh   1 at (   0   1   1)
       Maximum Pressure Error:  0.50E-09 on Mesh   4 at (  16   1  16)
       ScaRC: iterations    63, residual  0.28E-14, convergence rate   0.54E+00
       ---------------------------------------------------------------
       Mesh    1
       Max CFL number:  0.25E+00 at (  10,   1,   2)
       Max divergence:  0.85E-14 at (  14,   1,   6)
       Min divergence: -0.10E-13 at (   7,   1,   7)
       Max VN number:   0.17E-09 at (   2,   1,   1)
       Mesh    2
       Max CFL number:  0.25E+00 at (   2,   1,  10)
       Max divergence:  0.86E-14 at (   6,   1,  16)
       Min divergence: -0.18E-13 at (   5,   1,   7)
       Max VN number:   0.17E-09 at (  16,   1,   1)
       Mesh    3
       Max CFL number:  0.25E+00 at (   2,   1,  10)
       Max divergence:  0.78E-14 at (   6,   1,  13)
       Min divergence: -0.18E-13 at (   7,   1,   5)
       Max VN number:   0.17E-09 at (   1,   1,  16)
       Mesh    4
       Max CFL number:  0.25E+00 at (  10,   1,   2)
       Max divergence:  0.29E-11 at (  16,   1,  16)
       Min divergence: -0.28E-13 at (   5,   1,   8)
       Max VN number:   0.17E-09 at (  16,   1,  16)
 
       Time Step     200   July 15, 2020  16:45:59
       Step Size:    0.116E-01 s, Total Time:       2.22 s
       Pressure Iterations:      1
       Maximum Velocity Error:  0.44E-15 on Mesh   1 at (   4   1   0)
       Maximum Pressure Error:  0.18E-09 on Mesh   4 at (  16   1  16)
       ScaRC: iterations    63, residual  0.33E-14, convergence rate   0.54E+00
       ---------------------------------------------------------------
       Mesh    1
       Max CFL number:  0.25E+00 at (  16,   1,   7)
       Max divergence:  0.90E-14 at (  13,   1,   1)
       Min divergence: -0.83E-14 at (  10,   1,  13)
       Max VN number:   0.17E-09 at (   1,   1,   3)
       Mesh    2
       Max CFL number:  0.25E+00 at (   7,   1,  16)
       Max divergence:  0.10E-13 at (   3,   1,  15)
       Min divergence: -0.14E-13 at (  11,   1,  10)
       Max VN number:   0.17E-09 at (  16,   1,   2)
       Mesh    3
       Max CFL number:  0.25E+00 at (   7,   1,  16)
       Max divergence:  0.11E-13 at (   7,   1,  12)
       Min divergence: -0.16E-13 at (  12,   1,  11)
       Max VN number:   0.17E-09 at (   1,   1,  16)
       Mesh    4
       Max CFL number:  0.25E+00 at (  16,   1,   7)
       Max divergence:  0.10E-11 at (  16,   1,  16)
       Min divergence: -0.22E-13 at (  11,   1,  11)
       Max VN number:   0.17E-09 at (  16,   1,  16)
 
       Time Step     300   July 15, 2020  16:46:02
       Step Size:    0.116E-01 s, Total Time:       3.32 s
       Pressure Iterations:      1
       Maximum Velocity Error:  0.44E-15 on Mesh   1 at (   8   1   0)
       Maximum Pressure Error:  0.27E-08 on Mesh   4 at (  16   1  16)
       ScaRC: iterations    64, residual  0.41E-14, convergence rate   0.54E+00
       ---------------------------------------------------------------
       Mesh    1
       Max CFL number:  0.25E+00 at (  13,   1,   6)
       Max divergence:  0.33E-13 at (  10,   1,  10)
       Min divergence: -0.21E-13 at (  16,   1,  11)
       Max VN number:   0.17E-09 at (   1,   1,   8)
       Mesh    2
       Max CFL number:  0.25E+00 at (   6,   1,  13)
       Max divergence:  0.67E-13 at (   8,   1,  13)
       Min divergence: -0.20E-13 at (  12,   1,  16)
       Max VN number:   0.17E-09 at (  13,   1,   7)
       Mesh    3
       Max CFL number:  0.25E+00 at (   6,   1,  13)
       Max divergence:  0.61E-13 at (   7,   1,  11)
       Min divergence: -0.11E-13 at (  16,   1,  10)
       Max VN number:   0.17E-09 at (   8,   1,   5)
       Mesh    4
       Max CFL number:  0.25E+00 at (  13,   1,   6)
       Max divergence:  0.90E-13 at (   8,   1,   8)
       Min divergence: -0.16E-10 at (  16,   1,  16)
       Max VN number:   0.17E-09 at (   5,   1,  11)
 
       Time Step     400   July 15, 2020  16:46:05
       Step Size:    0.116E-01 s, Total Time:       4.43 s
       Pressure Iterations:      1
       Maximum Velocity Error:  0.44E-15 on Mesh   1 at (  16   1   0)
       Maximum Pressure Error:  0.37E-09 on Mesh   4 at (  16   1  16)
       ScaRC: iterations    62, residual  0.91E-14, convergence rate   0.54E+00
       ---------------------------------------------------------------
       Mesh    1
       Max CFL number:  0.25E+00 at (  11,   1,   3)
       Max divergence:  0.89E-14 at (  16,   1,  10)
       Min divergence: -0.10E-13 at (  16,   1,   9)
       Max VN number:   0.17E-09 at (   2,   1,   1)
       Mesh    2
       Max CFL number:  0.25E+00 at (   3,   1,  11)
       Max divergence:  0.77E-14 at (   8,   1,  16)
       Min divergence: -0.16E-13 at (  11,   1,   6)
       Max VN number:   0.17E-09 at (  16,   1,   1)
       Mesh    3
       Max CFL number:  0.25E+00 at (   3,   1,  11)
       Max divergence:  0.87E-14 at (   8,   1,  10)
       Min divergence: -0.18E-13 at (   7,   1,   8)
       Max VN number:   0.17E-09 at (   1,   1,  16)
       Mesh    4
       Max CFL number:  0.25E+00 at (  11,   1,   3)
       Max divergence:  0.21E-11 at (  16,   1,  16)
       Min divergence: -0.25E-13 at (   5,   1,   8)
       Max VN number:   0.17E-09 at (  16,   1,  16)
 
       Time Step     500   July 15, 2020  16:46:09
       Step Size:    0.116E-01 s, Total Time:       5.54 s
       Pressure Iterations:      1
       Maximum Velocity Error:  0.22E-15 on Mesh   1 at (  11   1   0)
       Maximum Pressure Error:  0.46E-09 on Mesh   4 at (  16   1  16)
       ScaRC: iterations    63, residual  0.64E-14, convergence rate   0.55E+00
       ---------------------------------------------------------------
       Mesh    1
       Max CFL number:  0.25E+00 at (   8,   1,   1)
       Max divergence:  0.19E-13 at (  13,   1,   5)
       Min divergence: -0.82E-14 at (  12,   1,   5)
       Max VN number:   0.17E-09 at (   1,   1,   4)
       Mesh    2
       Max CFL number:  0.25E+00 at (   1,   1,   8)
       Max divergence:  0.16E-13 at (   5,   1,  10)
       Min divergence: -0.83E-14 at (   7,   1,  12)
       Max VN number:   0.17E-09 at (  16,   1,   3)
       Mesh    3
       Max CFL number:  0.25E+00 at (   1,   1,   8)
       Max divergence:  0.19E-13 at (   4,   1,  11)
       Min divergence: -0.70E-14 at (   5,   1,  10)
       Max VN number:   0.17E-09 at (   3,   1,   1)
       Mesh    4
       Max CFL number:  0.25E+00 at (   8,   1,   1)
       Max divergence:  0.27E-13 at (   8,   1,   4)
       Min divergence: -0.26E-11 at (  16,   1,  16)
       Max VN number:   0.17E-09 at (   6,   1,  16)
 
       Time Step     567   July 15, 2020  16:46:11
       Step Size:    0.112E-01 s, Total Time:       6.28 s
       Pressure Iterations:      1
       Maximum Velocity Error:  0.44E-15 on Mesh   1 at (   9   1   0)
       Maximum Pressure Error:  0.33E-08 on Mesh   4 at (  16   1  16)
       ScaRC: iterations    64, residual  0.40E-14, convergence rate   0.54E+00
       ---------------------------------------------------------------
       Mesh    1
       Max CFL number:  0.24E+00 at (  12,   1,   5)
       Max divergence:  0.37E-13 at (  13,   1,   5)
       Min divergence: -0.19E-13 at (  16,   1,  16)
       Max VN number:   0.16E-09 at (   1,   1,   8)
       Mesh    2
       Max CFL number:  0.24E+00 at (   5,   1,  12)
       Max divergence:  0.80E-13 at (   8,   1,  13)
       Min divergence: -0.22E-13 at (  13,   1,  16)
       Max VN number:   0.16E-09 at (  13,   1,   7)
       Mesh    3
       Max CFL number:  0.24E+00 at (   5,   1,  12)
       Max divergence:  0.75E-13 at (  10,   1,  11)
       Min divergence: -0.15E-13 at (  15,   1,  10)
       Max VN number:   0.16E-09 at (   7,   1,   5)
       Mesh    4
       Max CFL number:  0.24E+00 at (  12,   1,   5)
       Max divergence:  0.11E-12 at (  11,   1,   8)
       Min divergence: -0.19E-10 at (  16,   1,  16)
       Max VN number:   0.16E-09 at (   5,   1,  11)
 


 Time Stepping Wall Clock Time (s):       15.160
 Total Elapsed Wall Clock Time (s):       15.381

STOP: FDS completed successfully (CHID: ns2d_4mesh_32_scarc)
