
 Fire Dynamics Simulator

 Current Date     : June 26, 2020  16:17:43
 Revision         : -AMG
 Revision Date    : Fri Jun 26 15:19:14 2020 +0200
 Compiler         : Intel ifort 19.0.5.281
 Compilation Date : Jun 26, 2020 15:25:32

 MPI Enabled;    Number of MPI Processes:       4
 OpenMP Enabled; Number of OpenMP Threads:      4

 MPI version: 3.1
 MPI library version: Intel(R) MPI Library 2018 Update 1 for Linux* OS


 Job TITLE        : Analytical solution to the 2d Navier-Stokes equations
 Job ID string    : ns2d_4mesh_16_scarc_nupt1


 Grid Dimensions, Mesh     1

   Cells in the X Direction             8
   Cells in the Y Direction             1
   Cells in the Z Direction             8
   Number of Grid Cells                64


 Physical Dimensions, Mesh     1

   Length (m)                       3.142
   Width  (m)                       0.100
   Height (m)                       3.142
   Initial Time Step (s)            0.062

 Grid Dimensions, Mesh     2

   Cells in the X Direction             8
   Cells in the Y Direction             1
   Cells in the Z Direction             8
   Number of Grid Cells                64


 Physical Dimensions, Mesh     2

   Length (m)                       3.142
   Width  (m)                       0.100
   Height (m)                       3.142
   Initial Time Step (s)            0.062

 Grid Dimensions, Mesh     3

   Cells in the X Direction             8
   Cells in the Y Direction             1
   Cells in the Z Direction             8
   Number of Grid Cells                64


 Physical Dimensions, Mesh     3

   Length (m)                       3.142
   Width  (m)                       0.100
   Height (m)                       3.142
   Initial Time Step (s)            0.062

 Grid Dimensions, Mesh     4

   Cells in the X Direction             8
   Cells in the Y Direction             1
   Cells in the Z Direction             8
   Number of Grid Cells                64


 Physical Dimensions, Mesh     4

   Length (m)                       3.142
   Width  (m)                       0.100
   Height (m)                       3.142
   Initial Time Step (s)            0.062

Total Number of Grid Cells           256


 Miscellaneous Parameters

   Simulation Start Time (s)          0.0
   Simulation End Time (s)            6.3
   Ambient Temperature (C):         20.00


 Mass Fraction Transformation Matrix to Convert Species Mixtures (Columns) to Primitive Species (Rows)

                         BACKGROU
   BACKGROUND            1.000000


 Primitive Species Information

   BACKGROUND
   Gas Species
   Molecular Weight (g/mol)            24.05515
   Ambient Density (kg/m^3)            1.000
   Enthalpy of Formation (J/kg)        0.00E+00


 Tracked (Lumped) Species Information

   BACKGROUND
   Molecular Weight (g/mol)            24.05515
   Ambient Density (kg/m^3)            1.000
   Initial Mass Fraction               1.000
   Enthalpy of Formation (J/kg)      0.00E+00

   Sub Species                    Mass Fraction     Mole Fraction
   BACKGROUND                     1.000000E+00      1.000000E+00
 
     Viscosity (kg/m/s) Ambient,  293 K:  1.00E-01
                                  500 K:  1.00E-01
                                 1000 K:  1.00E-01
                                 1500 K:  1.00E-01
   Therm. Cond. (W/m/K) Ambient,  293 K:  1.70E+02
                                  500 K:  1.70E+02
                                 1000 K:  1.70E+02
                                 1500 K:  1.70E+02
        Enthalpy (J/kg) Ambient,  293 K:  3.55E+05
                                  500 K:  6.05E+05
                                 1000 K:  1.21E+06
                                 1500 K:  1.81E+06
    Spec. Heat (J/kg/K) Ambient,  293 K:  1.21E+03
                                  500 K:  1.21E+03
                                 1000 K:  1.21E+03
                                 1500 K:  1.21E+03
   Diff. Coeff. (m^2/s) Ambient,  293 K:  2.14E-05
                                  500 K:  5.32E-05
                                 1000 K:  1.69E-04
                                 1500 K:  3.31E-04


 Material Information


 Surface Conditions

   0 INERT (DEFAULT)

   1 OPEN
     Passive Vent to Atmosphere

   2 MIRROR
     Symmetry Plane

   3 INTERPOLATED

   4 PERIODIC

   5 HVAC

   6 MASSLESS TRACER

   7 DROPLET

   8 EVACUATION_OUTFLOW
     Normal Velocity (m/s)         0.000

   9 MASSLESS TARGET

  10 PERIODIC WIND


 Device Coordinates

     1 Coords:      3.141493      0.000000      3.141493, Make: null, ID: UVEL, Quantity: U-VELOCITY
     2 Coords:      3.141493      0.000000      3.141493, Make: null, ID: PRES, Quantity: PRESSURE
     3 Coords:      3.141493      0.000000      3.141493, Make: null, ID: VISC, Quantity: VISCOSITY
     4 Coords:      0.003927      0.000000      0.003927, Make: null, ID: scarc-iter, Quantity: SCARC ITERATIONS
     5 Coords:      0.003927      0.000000      0.003927, Make: null, ID: scarc-rate, Quantity: SCARC CONVERGENCE RATE
     6 Coords:      0.003927      0.000000      0.003927, Make: null, ID: scarc-res, Quantity: SCARC RESIDUAL


 Slice File Information, Mesh     1

   Sampling Interval (s)             0.006

   1 Nodes:   0   8   1   1   0   8, Quantity: VELOCITY
   2 Nodes:   0   8   1   1   0   8, Quantity: U-VELOCITY
   3 Nodes:   0   8   1   1   0   8, Quantity: W-VELOCITY
   4 Nodes:   0   8   1   1   0   8, Quantity: DENSITY
   5 Nodes:   0   8   1   1   0   8, Quantity: H
   6 Nodes:   0   8   1   1   0   8, Quantity: PRESSURE
   7 Nodes:   0   8   1   1   0   8, Quantity: VISCOSITY
   8 Nodes:   0   8   1   1   0   8, Quantity: DIVERGENCE


 Radiation Model Information

   Number of control angles   60
   Time step increment         2
   Angle increment             4
   Phi band   N_theta Solid angle
     1:       60     0.209
   Using constant absorption coefficient of -10.000 1/m


 SCARC Information

   Discretization             STRUCTURED
   Global solver                  KRYLOV
   Storage technique             COMPACT
   Preconditioner                PARDISO
   MKL precision                  DOUBLE
   Max iterations                   1000
   Stopping accuracy            0.10E-13
 
 

 Run Time Diagnostics

       Time Step       1   June 26, 2020  16:17:43
       Step Size:    0.204E-01 s, Total Time:       0.02 s
       Pressure Iterations:      1
       Maximum Velocity Error:  0.44E-15 on Mesh   1 at (   3   1   0)
       Maximum Pressure Error:  0.53E-10 on Mesh   4 at (   8   1   8)
       ScaRC: iterations    42, residual  0.74E-14, convergence rate   0.41E+00
       ---------------------------------------------------------------
       Mesh    1
       Max CFL number:  0.23E+00 at (   6,   1,   3)
       Max divergence:  0.28E-14 at (   8,   1,   8)
       Min divergence: -0.70E-14 at (   6,   1,   2)
       Max VN number:   0.75E-01 at (   8,   1,   8)
       Mesh    2
       Max CFL number:  0.23E+00 at (   3,   1,   6)
       Max divergence:  0.57E-14 at (   2,   1,   8)
       Min divergence: -0.87E-14 at (   3,   1,   6)
       Max VN number:   0.75E-01 at (   8,   1,   8)
       Mesh    3
       Max CFL number:  0.23E+00 at (   3,   1,   6)
       Max divergence:  0.47E-14 at (   1,   1,   5)
       Min divergence: -0.93E-14 at (   4,   1,   6)
       Max VN number:   0.75E-01 at (   8,   1,   8)
       Mesh    4
       Max CFL number:  0.23E+00 at (   6,   1,   3)
       Max divergence:  0.54E-12 at (   8,   1,   8)
       Min divergence: -0.12E-13 at (   4,   1,   4)
       Max VN number:   0.75E-01 at (   8,   1,   8)
 
       Time Step       2   June 26, 2020  16:17:43
       Step Size:    0.225E-01 s, Total Time:       0.04 s
       Pressure Iterations:      1
       Maximum Velocity Error:  0.22E-15 on Mesh   4 at (   6   1   9)
       Maximum Pressure Error:  0.50E-10 on Mesh   4 at (   8   1   8)
       ScaRC: iterations    42, residual  0.88E-14, convergence rate   0.41E+00
       ---------------------------------------------------------------
       Mesh    1
       Max CFL number:  0.25E+00 at (   6,   1,   3)
       Max divergence:  0.37E-14 at (   8,   1,   8)
       Min divergence: -0.71E-14 at (   4,   1,   4)
       Max VN number:   0.82E-01 at (   8,   1,   8)
       Mesh    2
       Max CFL number:  0.25E+00 at (   3,   1,   6)
       Max divergence:  0.15E-13 at (   8,   1,   1)
       Min divergence: -0.10E-13 at (   6,   1,   6)
       Max VN number:   0.82E-01 at (   2,   1,   8)
       Mesh    3
       Max CFL number:  0.25E+00 at (   3,   1,   6)
       Max divergence:  0.15E-13 at (   1,   1,   8)
       Min divergence: -0.91E-14 at (   6,   1,   6)
       Max VN number:   0.82E-01 at (   8,   1,   8)
       Mesh    4
       Max CFL number:  0.25E+00 at (   6,   1,   3)
       Max divergence:  0.50E-12 at (   8,   1,   8)
       Min divergence: -0.10E-13 at (   3,   1,   6)
       Max VN number:   0.82E-01 at (   8,   1,   8)
 
       Time Step       3   June 26, 2020  16:17:43
       Step Size:    0.205E-01 s, Total Time:       0.06 s
       Pressure Iterations:      1
       Maximum Velocity Error:  0.44E-15 on Mesh   1 at (   3   1   0)
       Maximum Pressure Error:  0.49E-10 on Mesh   4 at (   8   1   8)
       ScaRC: iterations    42, residual  0.93E-14, convergence rate   0.41E+00
       ---------------------------------------------------------------
       Mesh    1
       Max CFL number:  0.23E+00 at (   6,   1,   3)
       Max divergence:  0.26E-14 at (   8,   1,   8)
       Min divergence: -0.71E-14 at (   5,   1,   3)
       Max VN number:   0.75E-01 at (   8,   1,   8)
       Mesh    2
       Max CFL number:  0.23E+00 at (   3,   1,   6)
       Max divergence:  0.26E-13 at (   8,   1,   1)
       Min divergence: -0.73E-14 at (   3,   1,   5)
       Max VN number:   0.75E-01 at (   8,   1,   1)
       Mesh    3
       Max CFL number:  0.23E+00 at (   3,   1,   6)
       Max divergence:  0.22E-13 at (   1,   1,   8)
       Min divergence: -0.82E-14 at (   2,   1,   4)
       Max VN number:   0.75E-01 at (   1,   1,   8)
       Mesh    4
       Max CFL number:  0.23E+00 at (   6,   1,   3)
       Max divergence:  0.39E-12 at (   8,   1,   8)
       Min divergence: -0.95E-14 at (   6,   1,   3)
       Max VN number:   0.75E-01 at (   8,   1,   8)
 
       Time Step       4   June 26, 2020  16:17:43
       Step Size:    0.225E-01 s, Total Time:       0.09 s
       Pressure Iterations:      1
       Maximum Velocity Error:  0.44E-15 on Mesh   1 at (   3   1   0)
       Maximum Pressure Error:  0.47E-10 on Mesh   4 at (   8   1   8)
       ScaRC: iterations    42, residual  0.95E-14, convergence rate   0.41E+00
       ---------------------------------------------------------------
       Mesh    1
       Max CFL number:  0.25E+00 at (   6,   1,   3)
       Max divergence:  0.45E-14 at (   1,   1,   1)
       Min divergence: -0.62E-14 at (   4,   1,   4)
       Max VN number:   0.82E-01 at (   1,   1,   1)
       Mesh    2
       Max CFL number:  0.25E+00 at (   3,   1,   6)
       Max divergence:  0.30E-13 at (   8,   1,   1)
       Min divergence: -0.73E-14 at (   6,   1,   3)
       Max VN number:   0.82E-01 at (   8,   1,   1)
       Mesh    3
       Max CFL number:  0.25E+00 at (   3,   1,   6)
       Max divergence:  0.20E-13 at (   1,   1,   8)
       Min divergence: -0.10E-13 at (   5,   1,   7)
       Max VN number:   0.82E-01 at (   1,   1,   8)
       Mesh    4
       Max CFL number:  0.25E+00 at (   6,   1,   3)
       Max divergence:  0.38E-12 at (   8,   1,   8)
       Min divergence: -0.73E-14 at (   6,   1,   4)
       Max VN number:   0.82E-01 at (   8,   1,   8)
 
       Time Step       5   June 26, 2020  16:17:43
       Step Size:    0.206E-01 s, Total Time:       0.11 s
       Pressure Iterations:      1
       Maximum Velocity Error:  0.44E-15 on Mesh   1 at (   3   1   0)
       Maximum Pressure Error:  0.45E-10 on Mesh   4 at (   8   1   8)
       ScaRC: iterations    42, residual  0.98E-14, convergence rate   0.41E+00
       ---------------------------------------------------------------
       Mesh    1
       Max CFL number:  0.23E+00 at (   7,   1,   3)
       Max divergence:  0.71E-14 at (   1,   1,   1)
       Min divergence: -0.56E-14 at (   4,   1,   2)
       Max VN number:   0.75E-01 at (   1,   1,   1)
       Mesh    2
       Max CFL number:  0.23E+00 at (   3,   1,   7)
       Max divergence:  0.33E-13 at (   8,   1,   1)
       Min divergence: -0.78E-14 at (   3,   1,   5)
       Max VN number:   0.75E-01 at (   8,   1,   1)
       Mesh    3
       Max CFL number:  0.23E+00 at (   3,   1,   7)
       Max divergence:  0.19E-13 at (   1,   1,   8)
       Min divergence: -0.78E-14 at (   5,   1,   7)
       Max VN number:   0.75E-01 at (   1,   1,   8)
       Mesh    4
       Max CFL number:  0.23E+00 at (   7,   1,   3)
       Max divergence:  0.29E-12 at (   8,   1,   8)
       Min divergence: -0.73E-14 at (   6,   1,   3)
       Max VN number:   0.75E-01 at (   8,   1,   8)
 
       Time Step       6   June 26, 2020  16:17:43
       Step Size:    0.226E-01 s, Total Time:       0.13 s
       Pressure Iterations:      1
       Maximum Velocity Error:  0.44E-15 on Mesh   1 at (   4   1   0)
       Maximum Pressure Error:  0.42E-10 on Mesh   4 at (   8   1   8)
       ScaRC: iterations    43, residual  0.45E-14, convergence rate   0.41E+00
       ---------------------------------------------------------------
       Mesh    1
       Max CFL number:  0.25E+00 at (   7,   1,   3)
       Max divergence:  0.71E-14 at (   1,   1,   1)
       Min divergence: -0.62E-14 at (   5,   1,   2)
       Max VN number:   0.83E-01 at (   1,   1,   1)
       Mesh    2
       Max CFL number:  0.25E+00 at (   3,   1,   7)
       Max divergence:  0.35E-13 at (   8,   1,   1)
       Min divergence: -0.62E-14 at (   4,   1,   4)
       Max VN number:   0.83E-01 at (   8,   1,   1)
       Mesh    3
       Max CFL number:  0.25E+00 at (   3,   1,   7)
       Max divergence:  0.12E-13 at (   1,   1,   8)
       Min divergence: -0.62E-14 at (   4,   1,   8)
       Max VN number:   0.83E-01 at (   1,   1,   8)
       Mesh    4
       Max CFL number:  0.25E+00 at (   7,   1,   3)
       Max divergence:  0.29E-12 at (   8,   1,   8)
       Min divergence: -0.73E-14 at (   6,   1,   4)
       Max VN number:   0.83E-01 at (   8,   1,   8)
 
       Time Step       7   June 26, 2020  16:17:43
       Step Size:    0.206E-01 s, Total Time:       0.15 s
       Pressure Iterations:      1
       Maximum Velocity Error:  0.44E-15 on Mesh   1 at (   4   1   0)
       Maximum Pressure Error:  0.40E-10 on Mesh   4 at (   8   1   8)
       ScaRC: iterations    43, residual  0.46E-14, convergence rate   0.41E+00
       ---------------------------------------------------------------
       Mesh    1
       Max CFL number:  0.23E+00 at (   7,   1,   3)
       Max divergence:  0.79E-14 at (   1,   1,   1)
       Min divergence: -0.58E-14 at (   4,   1,   4)
       Max VN number:   0.75E-01 at (   1,   1,   1)
       Mesh    2
       Max CFL number:  0.23E+00 at (   3,   1,   7)
       Max divergence:  0.36E-13 at (   8,   1,   1)
       Min divergence: -0.67E-14 at (   7,   1,   5)
       Max VN number:   0.75E-01 at (   8,   1,   1)
       Mesh    3
       Max CFL number:  0.23E+00 at (   3,   1,   7)
       Max divergence:  0.12E-13 at (   2,   1,   8)
       Min divergence: -0.57E-14 at (   4,   1,   8)
       Max VN number:   0.75E-01 at (   1,   1,   8)
       Mesh    4
       Max CFL number:  0.23E+00 at (   7,   1,   3)
       Max divergence:  0.21E-12 at (   8,   1,   8)
       Min divergence: -0.53E-14 at (   7,   1,   6)
       Max VN number:   0.75E-01 at (   8,   1,   8)
 
       Time Step       8   June 26, 2020  16:17:43
       Step Size:    0.227E-01 s, Total Time:       0.17 s
       Pressure Iterations:      1
       Maximum Velocity Error:  0.44E-15 on Mesh   1 at (   5   1   0)
       Maximum Pressure Error:  0.38E-10 on Mesh   4 at (   8   1   8)
       ScaRC: iterations    43, residual  0.46E-14, convergence rate   0.41E+00
       ---------------------------------------------------------------
       Mesh    1
       Max CFL number:  0.25E+00 at (   7,   1,   3)
       Max divergence:  0.71E-14 at (   1,   1,   1)
       Min divergence: -0.60E-14 at (   5,   1,   2)
       Max VN number:   0.83E-01 at (   1,   1,   1)
       Mesh    2
       Max CFL number:  0.25E+00 at (   3,   1,   7)
       Max divergence:  0.36E-13 at (   8,   1,   1)
       Min divergence: -0.51E-14 at (   4,   1,   6)
       Max VN number:   0.83E-01 at (   8,   1,   1)
       Mesh    3
       Max CFL number:  0.25E+00 at (   3,   1,   7)
       Max divergence:  0.11E-13 at (   1,   1,   7)
       Min divergence: -0.60E-14 at (   4,   1,   7)
       Max VN number:   0.83E-01 at (   1,   1,   8)
       Mesh    4
       Max CFL number:  0.25E+00 at (   7,   1,   3)
       Max divergence:  0.22E-12 at (   8,   1,   8)
       Min divergence: -0.80E-14 at (   6,   1,   4)
       Max VN number:   0.83E-01 at (   8,   1,   8)
 
       Time Step       9   June 26, 2020  16:17:43
       Step Size:    0.207E-01 s, Total Time:       0.19 s
       Pressure Iterations:      1
       Maximum Velocity Error:  0.44E-15 on Mesh   1 at (   4   1   0)
       Maximum Pressure Error:  0.35E-10 on Mesh   4 at (   8   1   8)
       ScaRC: iterations    43, residual  0.46E-14, convergence rate   0.41E+00
       ---------------------------------------------------------------
       Mesh    1
       Max CFL number:  0.23E+00 at (   7,   1,   3)
       Max divergence:  0.57E-14 at (   1,   1,   1)
       Min divergence: -0.56E-14 at (   7,   1,   4)
       Max VN number:   0.76E-01 at (   1,   1,   1)
       Mesh    2
       Max CFL number:  0.23E+00 at (   3,   1,   7)
       Max divergence:  0.35E-13 at (   8,   1,   1)
       Min divergence: -0.62E-14 at (   6,   1,   3)
       Max VN number:   0.76E-01 at (   8,   1,   1)
       Mesh    3
       Max CFL number:  0.23E+00 at (   3,   1,   7)
       Max divergence:  0.17E-13 at (   1,   1,   7)
       Min divergence: -0.14E-13 at (   1,   1,   8)
       Max VN number:   0.76E-01 at (   1,   1,   8)
       Mesh    4
       Max CFL number:  0.23E+00 at (   7,   1,   3)
       Max divergence:  0.16E-12 at (   8,   1,   8)
       Min divergence: -0.51E-14 at (   6,   1,   5)
       Max VN number:   0.76E-01 at (   8,   1,   8)
 
       Time Step      10   June 26, 2020  16:17:43
       Step Size:    0.228E-01 s, Total Time:       0.22 s
       Pressure Iterations:      1
       Maximum Velocity Error:  0.11E-15 on Mesh   1 at (   4   1   9)
       Maximum Pressure Error:  0.34E-10 on Mesh   4 at (   8   1   8)
       ScaRC: iterations    43, residual  0.46E-14, convergence rate   0.41E+00
       ---------------------------------------------------------------
       Mesh    1
       Max CFL number:  0.25E+00 at (   7,   1,   3)
       Max divergence:  0.68E-14 at (   2,   1,   1)
       Min divergence: -0.49E-14 at (   6,   1,   3)
       Max VN number:   0.83E-01 at (   1,   1,   1)
       Mesh    2
       Max CFL number:  0.25E+00 at (   3,   1,   7)
       Max divergence:  0.33E-13 at (   8,   1,   1)
       Min divergence: -0.51E-14 at (   4,   1,   6)
       Max VN number:   0.83E-01 at (   8,   1,   1)
       Mesh    3
       Max CFL number:  0.25E+00 at (   3,   1,   7)
       Max divergence:  0.19E-13 at (   1,   1,   7)
       Min divergence: -0.23E-13 at (   1,   1,   8)
       Max VN number:   0.83E-01 at (   1,   1,   8)
       Mesh    4
       Max CFL number:  0.25E+00 at (   7,   1,   3)
       Max divergence:  0.16E-12 at (   8,   1,   8)
       Min divergence: -0.73E-14 at (   6,   1,   4)
       Max VN number:   0.83E-01 at (   8,   1,   8)
 
       Time Step      20   June 26, 2020  16:17:43
       Step Size:    0.233E-01 s, Total Time:       0.44 s
       Pressure Iterations:      1
       Maximum Velocity Error:  0.44E-15 on Mesh   1 at (   2   1   0)
       Maximum Pressure Error:  0.12E-10 on Mesh   4 at (   8   1   8)
       ScaRC: iterations    42, residual  0.73E-14, convergence rate   0.41E+00
       ---------------------------------------------------------------
       Mesh    1
       Max CFL number:  0.25E+00 at (   7,   1,   4)
       Max divergence:  0.51E-14 at (   1,   1,   2)
       Min divergence: -0.93E-14 at (   1,   1,   1)
       Max VN number:   0.85E-01 at (   1,   1,   1)
       Mesh    2
       Max CFL number:  0.25E+00 at (   4,   1,   7)
       Max divergence:  0.29E-13 at (   8,   1,   1)
       Min divergence: -0.30E-14 at (   3,   1,   7)
       Max VN number:   0.85E-01 at (   8,   1,   1)
       Mesh    3
       Max CFL number:  0.25E+00 at (   4,   1,   7)
       Max divergence:  0.28E-13 at (   1,   1,   7)
       Min divergence: -0.66E-13 at (   1,   1,   8)
       Max VN number:   0.85E-01 at (   1,   1,   8)
       Mesh    4
       Max CFL number:  0.25E+00 at (   7,   1,   4)
       Max divergence:  0.36E-13 at (   7,   1,   8)
       Min divergence: -0.47E-14 at (   6,   1,   4)
       Max VN number:   0.85E-01 at (   8,   1,   8)
 
       Time Step      30   June 26, 2020  16:17:44
       Step Size:    0.239E-01 s, Total Time:       0.66 s
       Pressure Iterations:      1
       Maximum Velocity Error:  0.44E-15 on Mesh   1 at (   8   1   0)
       Maximum Pressure Error:  0.22E-11 on Mesh   4 at (   8   1   8)
       ScaRC: iterations    38, residual  0.90E-14, convergence rate   0.38E+00
       ---------------------------------------------------------------
       Mesh    1
       Max CFL number:  0.25E+00 at (   8,   1,   4)
       Max divergence:  0.65E-14 at (   1,   1,   3)
       Min divergence: -0.13E-13 at (   2,   1,   1)
       Max VN number:   0.87E-01 at (   2,   1,   1)
       Mesh    2
       Max CFL number:  0.25E+00 at (   4,   1,   8)
       Max divergence:  0.15E-13 at (   8,   1,   1)
       Min divergence: -0.27E-14 at (   5,   1,   7)
       Max VN number:   0.87E-01 at (   8,   1,   1)
       Mesh    3
       Max CFL number:  0.25E+00 at (   4,   1,   8)
       Max divergence:  0.15E-13 at (   2,   1,   7)
       Min divergence: -0.36E-13 at (   1,   1,   8)
       Max VN number:   0.87E-01 at (   1,   1,   8)
       Mesh    4
       Max CFL number:  0.25E+00 at (   8,   1,   4)
       Max divergence:  0.13E-13 at (   8,   1,   7)
       Min divergence: -0.60E-13 at (   8,   1,   8)
       Max VN number:   0.87E-01 at (   8,   1,   8)
 
       Time Step      40   June 26, 2020  16:17:44
       Step Size:    0.244E-01 s, Total Time:       0.89 s
       Pressure Iterations:      1
       Maximum Velocity Error:  0.22E-15 on Mesh   1 at (   0   1   1)
       Maximum Pressure Error:  0.71E-11 on Mesh   4 at (   8   1   8)
       ScaRC: iterations    42, residual  0.42E-14, convergence rate   0.41E+00
       ---------------------------------------------------------------
       Mesh    1
       Max CFL number:  0.25E+00 at (   8,   1,   5)
       Max divergence:  0.58E-14 at (   2,   1,   4)
       Min divergence: -0.13E-13 at (   2,   1,   1)
       Max VN number:   0.89E-01 at (   3,   1,   1)
       Mesh    2
       Max CFL number:  0.25E+00 at (   5,   1,   8)
       Max divergence:  0.36E-14 at (   3,   1,   2)
       Min divergence: -0.38E-14 at (   5,   1,   7)
       Max VN number:   0.89E-01 at (   8,   1,   1)
       Mesh    3
       Max CFL number:  0.25E+00 at (   5,   1,   8)
       Max divergence:  0.78E-14 at (   2,   1,   7)
       Min divergence: -0.12E-13 at (   3,   1,   8)
       Max VN number:   0.89E-01 at (   3,   1,   8)
       Mesh    4
       Max CFL number:  0.25E+00 at (   8,   1,   5)
       Max divergence:  0.45E-14 at (   4,   1,   3)
       Min divergence: -0.57E-13 at (   8,   1,   8)
       Max VN number:   0.89E-01 at (   7,   1,   8)
 
       Time Step      50   June 26, 2020  16:17:44
       Step Size:    0.250E-01 s, Total Time:       1.13 s
       Pressure Iterations:      1
       Maximum Velocity Error:  0.22E-15 on Mesh   1 at (   4   1   0)
       Maximum Pressure Error:  0.58E-11 on Mesh   4 at (   8   1   8)
       ScaRC: iterations    38, residual  0.82E-14, convergence rate   0.38E+00
       ---------------------------------------------------------------
       Mesh    1
       Max CFL number:  0.25E+00 at (   6,   1,   1)
       Max divergence:  0.54E-14 at (   2,   1,   4)
       Min divergence: -0.91E-14 at (   3,   1,   1)
       Max VN number:   0.91E-01 at (   4,   1,   2)
       Mesh    2
       Max CFL number:  0.25E+00 at (   1,   1,   6)
       Max divergence:  0.33E-14 at (   3,   1,   4)
       Min divergence: -0.62E-14 at (   8,   1,   1)
       Max VN number:   0.91E-01 at (   8,   1,   2)
       Mesh    3
       Max CFL number:  0.25E+00 at (   1,   1,   6)
       Max divergence:  0.95E-14 at (   1,   1,   8)
       Min divergence: -0.40E-14 at (   3,   1,   8)
       Max VN number:   0.91E-01 at (   4,   1,   8)
       Mesh    4
       Max CFL number:  0.25E+00 at (   6,   1,   1)
       Max divergence:  0.45E-14 at (   6,   1,   3)
       Min divergence: -0.34E-13 at (   8,   1,   8)
       Max VN number:   0.91E-01 at (   5,   1,   2)
 
       Time Step      60   June 26, 2020  16:17:44
       Step Size:    0.256E-01 s, Total Time:       1.37 s
       Pressure Iterations:      1
       Maximum Velocity Error:  0.44E-15 on Mesh   1 at (   4   1   0)
       Maximum Pressure Error:  0.42E-11 on Mesh   4 at (   8   1   8)
       ScaRC: iterations    37, residual  0.45E-14, convergence rate   0.37E+00
       ---------------------------------------------------------------
       Mesh    1
       Max CFL number:  0.25E+00 at (   6,   1,   2)
       Max divergence:  0.57E-14 at (   2,   1,   1)
       Min divergence: -0.91E-14 at (   4,   1,   1)
       Max VN number:   0.93E-01 at (   5,   1,   3)
       Mesh    2
       Max CFL number:  0.25E+00 at (   2,   1,   6)
       Max divergence:  0.26E-14 at (   3,   1,   2)
       Min divergence: -0.47E-14 at (   7,   1,   1)
       Max VN number:   0.93E-01 at (   8,   1,   2)
       Mesh    3
       Max CFL number:  0.25E+00 at (   2,   1,   6)
       Max divergence:  0.82E-14 at (   1,   1,   8)
       Min divergence: -0.59E-14 at (   2,   1,   7)
       Max VN number:   0.93E-01 at (   5,   1,   8)
       Mesh    4
       Max CFL number:  0.25E+00 at (   6,   1,   2)
       Max divergence:  0.37E-14 at (   4,   1,   4)
       Min divergence: -0.23E-13 at (   8,   1,   8)
       Max VN number:   0.93E-01 at (   5,   1,   2)
 
       Time Step      70   June 26, 2020  16:17:44
       Step Size:    0.262E-01 s, Total Time:       1.62 s
       Pressure Iterations:      1
       Maximum Velocity Error:  0.22E-15 on Mesh   1 at (   0   1   1)
       Maximum Pressure Error:  0.47E-11 on Mesh   4 at (   8   1   8)
       ScaRC: iterations    37, residual  0.55E-14, convergence rate   0.37E+00
       ---------------------------------------------------------------
       Mesh    1
       Max CFL number:  0.25E+00 at (   7,   1,   2)
       Max divergence:  0.52E-14 at (   8,   1,   3)
       Min divergence: -0.44E-14 at (   1,   1,   2)
       Max VN number:   0.96E-01 at (   6,   1,   4)
       Mesh    2
       Max CFL number:  0.25E+00 at (   2,   1,   7)
       Max divergence:  0.38E-14 at (   8,   1,   1)
       Min divergence: -0.62E-14 at (   7,   1,   1)
       Max VN number:   0.96E-01 at (   5,   1,   8)
       Mesh    3
       Max CFL number:  0.25E+00 at (   2,   1,   7)
       Max divergence:  0.51E-14 at (   2,   1,   8)
       Min divergence: -0.48E-14 at (   2,   1,   7)
       Max VN number:   0.96E-01 at (   5,   1,   8)
       Mesh    4
       Max CFL number:  0.25E+00 at (   7,   1,   2)
       Max divergence:  0.42E-14 at (   4,   1,   4)
       Min divergence: -0.32E-13 at (   8,   1,   8)
       Max VN number:   0.96E-01 at (   5,   1,   2)
 
       Time Step      80   June 26, 2020  16:17:45
       Step Size:    0.268E-01 s, Total Time:       1.87 s
       Pressure Iterations:      1
       Maximum Velocity Error:  0.33E-15 on Mesh   4 at (   2   1   9)
       Maximum Pressure Error:  0.54E-11 on Mesh   4 at (   8   1   8)
       ScaRC: iterations    37, residual  0.98E-14, convergence rate   0.38E+00
       ---------------------------------------------------------------
       Mesh    1
       Max CFL number:  0.25E+00 at (   7,   1,   3)
       Max divergence:  0.43E-14 at (   5,   1,   2)
       Min divergence: -0.47E-14 at (   8,   1,   7)
       Max VN number:   0.98E-01 at (   6,   1,   5)
       Mesh    2
       Max CFL number:  0.25E+00 at (   3,   1,   7)
       Max divergence:  0.11E-13 at (   8,   1,   1)
       Min divergence: -0.82E-14 at (   7,   1,   1)
       Max VN number:   0.98E-01 at (   5,   1,   8)
       Mesh    3
       Max CFL number:  0.25E+00 at (   3,   1,   7)
       Max divergence:  0.40E-14 at (   2,   1,   8)
       Min divergence: -0.49E-14 at (   2,   1,   7)
       Max VN number:   0.98E-01 at (   5,   1,   8)
       Mesh    4
       Max CFL number:  0.25E+00 at (   7,   1,   3)
       Max divergence:  0.45E-14 at (   4,   1,   4)
       Min divergence: -0.38E-13 at (   8,   1,   8)
       Max VN number:   0.98E-01 at (   5,   1,   2)
 
       Time Step      90   June 26, 2020  16:17:45
       Step Size:    0.274E-01 s, Total Time:       2.13 s
       Pressure Iterations:      1
       Maximum Velocity Error:  0.22E-15 on Mesh   1 at (   9   1   2)
       Maximum Pressure Error:  0.24E-11 on Mesh   4 at (   8   1   8)
       ScaRC: iterations    38, residual  0.41E-14, convergence rate   0.38E+00
       ---------------------------------------------------------------
       Mesh    1
       Max CFL number:  0.25E+00 at (   8,   1,   4)
       Max divergence:  0.33E-14 at (   4,   1,   7)
       Min divergence: -0.34E-14 at (   6,   1,   5)
       Max VN number:   0.10E+00 at (   6,   1,   5)
       Mesh    2
       Max CFL number:  0.25E+00 at (   4,   1,   8)
       Max divergence:  0.14E-13 at (   8,   1,   1)
       Min divergence: -0.57E-14 at (   7,   1,   1)
       Max VN number:   0.10E+00 at (   1,   1,   4)
       Mesh    3
       Max CFL number:  0.25E+00 at (   4,   1,   8)
       Max divergence:  0.32E-14 at (   3,   1,   8)
       Min divergence: -0.56E-14 at (   1,   1,   8)
       Max VN number:   0.10E+00 at (   6,   1,   8)
       Mesh    4
       Max CFL number:  0.25E+00 at (   8,   1,   4)
       Max divergence:  0.33E-14 at (   4,   1,   4)
       Min divergence: -0.98E-14 at (   7,   1,   8)
       Max VN number:   0.10E+00 at (   5,   1,   2)
 
       Time Step     100   June 26, 2020  16:17:45
       Step Size:    0.280E-01 s, Total Time:       2.40 s
       Pressure Iterations:      1
       Maximum Velocity Error:  0.22E-15 on Mesh   1 at (   4   1   0)
       Maximum Pressure Error:  0.54E-11 on Mesh   4 at (   8   1   8)
       ScaRC: iterations    41, residual  0.86E-14, convergence rate   0.41E+00
       ---------------------------------------------------------------
       Mesh    1
       Max CFL number:  0.25E+00 at (   4,   1,   1)
       Max divergence:  0.57E-14 at (   1,   1,   1)
       Min divergence: -0.41E-14 at (   4,   1,   4)
       Max VN number:   0.10E+00 at (   7,   1,   5)
       Mesh    2
       Max CFL number:  0.25E+00 at (   1,   1,   4)
       Max divergence:  0.94E-14 at (   8,   1,   1)
       Min divergence: -0.47E-14 at (   7,   1,   2)
       Max VN number:   0.10E+00 at (   1,   1,   6)
       Mesh    3
       Max CFL number:  0.25E+00 at (   1,   1,   4)
       Max divergence:  0.29E-14 at (   2,   1,   6)
       Min divergence: -0.60E-14 at (   2,   1,   7)
       Max VN number:   0.10E+00 at (   6,   1,   8)
       Mesh    4
       Max CFL number:  0.25E+00 at (   4,   1,   1)
       Max divergence:  0.62E-13 at (   8,   1,   8)
       Min divergence: -0.28E-14 at (   5,   1,   3)
       Max VN number:   0.10E+00 at (   8,   1,   8)
 
       Time Step     200   June 26, 2020  16:17:46
       Step Size:    0.345E-01 s, Total Time:       5.39 s
       Pressure Iterations:      1
       Maximum Velocity Error:  0.44E-15 on Mesh   3 at (   5   1   9)
       Maximum Pressure Error:  0.46E-12 on Mesh   4 at (   8   1   8)
       ScaRC: iterations    37, residual  0.33E-14, convergence rate   0.38E+00
       ---------------------------------------------------------------
       Mesh    1
       Max CFL number:  0.25E+00 at (   8,   1,   4)
       Max divergence:  0.32E-14 at (   3,   1,   7)
       Min divergence: -0.45E-14 at (   7,   1,   4)
       Max VN number:   0.13E+00 at (   5,   1,   5)
       Mesh    2
       Max CFL number:  0.25E+00 at (   4,   1,   8)
       Max divergence:  0.28E-14 at (   8,   1,   1)
       Min divergence: -0.29E-14 at (   7,   1,   2)
       Max VN number:   0.13E+00 at (   1,   1,   7)
       Mesh    3
       Max CFL number:  0.25E+00 at (   4,   1,   8)
       Max divergence:  0.27E-14 at (   1,   1,   8)
       Min divergence: -0.31E-14 at (   1,   1,   5)
       Max VN number:   0.13E+00 at (   3,   1,   8)
       Mesh    4
       Max CFL number:  0.25E+00 at (   8,   1,   4)
       Max divergence:  0.26E-14 at (   8,   1,   8)
       Min divergence: -0.46E-14 at (   8,   1,   7)
       Max VN number:   0.13E+00 at (   2,   1,   1)
 
       Time Step     227   June 26, 2020  16:17:46
       Step Size:    0.189E-01 s, Total Time:       6.28 s
       Pressure Iterations:      1
       Maximum Velocity Error:  0.22E-15 on Mesh   1 at (   3   1   0)
       Maximum Pressure Error:  0.52E-11 on Mesh   4 at (   8   1   8)
       ScaRC: iterations    41, residual  0.73E-14, convergence rate   0.42E+00
       ---------------------------------------------------------------
       Mesh    1
       Max CFL number:  0.13E+00 at (   6,   1,   2)
       Max divergence:  0.31E-14 at (   2,   1,   1)
       Min divergence: -0.40E-14 at (   1,   1,   1)
       Max VN number:   0.69E-01 at (   1,   1,   1)
       Mesh    2
       Max CFL number:  0.13E+00 at (   2,   1,   6)
       Max divergence:  0.69E-14 at (   7,   1,   1)
       Min divergence: -0.51E-14 at (   8,   1,   1)
       Max VN number:   0.69E-01 at (   8,   1,   1)
       Mesh    3
       Max CFL number:  0.13E+00 at (   2,   1,   6)
       Max divergence:  0.45E-14 at (   2,   1,   8)
       Min divergence: -0.28E-14 at (   5,   1,   5)
       Max VN number:   0.69E-01 at (   1,   1,   8)
       Mesh    4
       Max CFL number:  0.13E+00 at (   6,   1,   2)
       Max divergence:  0.13E-13 at (   7,   1,   8)
       Min divergence: -0.26E-14 at (   5,   1,   5)
       Max VN number:   0.69E-01 at (   8,   1,   8)
 


 Time Stepping Wall Clock Time (s):        2.997
 Total Elapsed Wall Clock Time (s):        3.550

STOP: FDS completed successfully (CHID: ns2d_4mesh_16_scarc_nupt1)
