
 Fire Dynamics Simulator

 Current Date     : June 26, 2020  16:17:43
 Revision         : -AMG
 Revision Date    : Fri Jun 26 15:19:14 2020 +0200
 Compiler         : Intel ifort 19.0.5.281
 Compilation Date : Jun 26, 2020 15:25:32

 MPI Enabled;    Number of MPI Processes:       4
 OpenMP Enabled; Number of OpenMP Threads:      4

 MPI version: 3.1
 MPI library version: Intel(R) MPI Library 2018 Update 1 for Linux* OS


 Job TITLE        : Analytical solution to the 2d Navier-Stokes equations
 Job ID string    : ns2d_4mesh_32_scarc_nupt1


 Grid Dimensions, Mesh     1

   Cells in the X Direction            16
   Cells in the Y Direction             1
   Cells in the Z Direction            16
   Number of Grid Cells               256


 Physical Dimensions, Mesh     1

   Length (m)                       3.142
   Width  (m)                       0.100
   Height (m)                       3.142
   Initial Time Step (s)            0.031

 Grid Dimensions, Mesh     2

   Cells in the X Direction            16
   Cells in the Y Direction             1
   Cells in the Z Direction            16
   Number of Grid Cells               256


 Physical Dimensions, Mesh     2

   Length (m)                       3.142
   Width  (m)                       0.100
   Height (m)                       3.142
   Initial Time Step (s)            0.031

 Grid Dimensions, Mesh     3

   Cells in the X Direction            16
   Cells in the Y Direction             1
   Cells in the Z Direction            16
   Number of Grid Cells               256


 Physical Dimensions, Mesh     3

   Length (m)                       3.142
   Width  (m)                       0.100
   Height (m)                       3.142
   Initial Time Step (s)            0.031

 Grid Dimensions, Mesh     4

   Cells in the X Direction            16
   Cells in the Y Direction             1
   Cells in the Z Direction            16
   Number of Grid Cells               256


 Physical Dimensions, Mesh     4

   Length (m)                       3.142
   Width  (m)                       0.100
   Height (m)                       3.142
   Initial Time Step (s)            0.031

Total Number of Grid Cells          1024


 Miscellaneous Parameters

   Simulation Start Time (s)          0.0
   Simulation End Time (s)            6.3
   Ambient Temperature (C):         20.00


 Mass Fraction Transformation Matrix to Convert Species Mixtures (Columns) to Primitive Species (Rows)

                         BACKGROU
   BACKGROUND            1.000000


 Primitive Species Information

   BACKGROUND
   Gas Species
   Molecular Weight (g/mol)            24.05515
   Ambient Density (kg/m^3)            1.000
   Enthalpy of Formation (J/kg)        0.00E+00


 Tracked (Lumped) Species Information

   BACKGROUND
   Molecular Weight (g/mol)            24.05515
   Ambient Density (kg/m^3)            1.000
   Initial Mass Fraction               1.000
   Enthalpy of Formation (J/kg)      0.00E+00

   Sub Species                    Mass Fraction     Mole Fraction
   BACKGROUND                     1.000000E+00      1.000000E+00
 
     Viscosity (kg/m/s) Ambient,  293 K:  1.00E-01
                                  500 K:  1.00E-01
                                 1000 K:  1.00E-01
                                 1500 K:  1.00E-01
   Therm. Cond. (W/m/K) Ambient,  293 K:  1.70E+02
                                  500 K:  1.70E+02
                                 1000 K:  1.70E+02
                                 1500 K:  1.70E+02
        Enthalpy (J/kg) Ambient,  293 K:  3.55E+05
                                  500 K:  6.05E+05
                                 1000 K:  1.21E+06
                                 1500 K:  1.81E+06
    Spec. Heat (J/kg/K) Ambient,  293 K:  1.21E+03
                                  500 K:  1.21E+03
                                 1000 K:  1.21E+03
                                 1500 K:  1.21E+03
   Diff. Coeff. (m^2/s) Ambient,  293 K:  2.14E-05
                                  500 K:  5.32E-05
                                 1000 K:  1.69E-04
                                 1500 K:  3.31E-04


 Material Information


 Surface Conditions

   0 INERT (DEFAULT)

   1 OPEN
     Passive Vent to Atmosphere

   2 MIRROR
     Symmetry Plane

   3 INTERPOLATED

   4 PERIODIC

   5 HVAC

   6 MASSLESS TRACER

   7 DROPLET

   8 EVACUATION_OUTFLOW
     Normal Velocity (m/s)         0.000

   9 MASSLESS TARGET

  10 PERIODIC WIND


 Device Coordinates

     1 Coords:      3.141493      0.000000      3.141493, Make: null, ID: UVEL, Quantity: U-VELOCITY
     2 Coords:      3.141493      0.000000      3.141493, Make: null, ID: PRES, Quantity: PRESSURE
     3 Coords:      3.141493      0.000000      3.141493, Make: null, ID: VISC, Quantity: VISCOSITY
     4 Coords:      0.001963      0.000000      0.001963, Make: null, ID: scarc-iter, Quantity: SCARC ITERATIONS
     5 Coords:      0.001963      0.000000      0.001963, Make: null, ID: scarc-rate, Quantity: SCARC CONVERGENCE RATE
     6 Coords:      0.001963      0.000000      0.001963, Make: null, ID: scarc-res, Quantity: SCARC RESIDUAL


 Slice File Information, Mesh     1

   Sampling Interval (s)             0.006

   1 Nodes:   0  16   1   1   0  16, Quantity: VELOCITY
   2 Nodes:   0  16   1   1   0  16, Quantity: U-VELOCITY
   3 Nodes:   0  16   1   1   0  16, Quantity: W-VELOCITY
   4 Nodes:   0  16   1   1   0  16, Quantity: DENSITY
   5 Nodes:   0  16   1   1   0  16, Quantity: H
   6 Nodes:   0  16   1   1   0  16, Quantity: PRESSURE
   7 Nodes:   0  16   1   1   0  16, Quantity: VISCOSITY
   8 Nodes:   0  16   1   1   0  16, Quantity: DIVERGENCE


 Radiation Model Information

   Number of control angles   60
   Time step increment         2
   Angle increment             4
   Phi band   N_theta Solid angle
     1:       60     0.209
   Using constant absorption coefficient of -10.000 1/m


 SCARC Information

   Discretization             STRUCTURED
   Global solver                  KRYLOV
   Storage technique             COMPACT
   Preconditioner                PARDISO
   MKL precision                  DOUBLE
   Max iterations                   1000
   Stopping accuracy            0.10E-13
 
 

 Run Time Diagnostics

       Time Step       1   June 26, 2020  16:17:43
       Step Size:    0.106E-01 s, Total Time:       0.01 s
       Pressure Iterations:      1
       Maximum Velocity Error:  0.44E-15 on Mesh   1 at (   7   1   0)
       Maximum Pressure Error:  0.33E-08 on Mesh   4 at (  16   1  16)
       ScaRC: iterations    62, residual  0.83E-14, convergence rate   0.53E+00
       ---------------------------------------------------------------
       Mesh    1
       Max CFL number:  0.23E+00 at (  12,   1,   5)
       Max divergence:  0.36E-13 at (  13,   1,  10)
       Min divergence: -0.16E-13 at (  15,   1,  16)
       Max VN number:   0.15E+00 at (  16,   1,  16)
       Mesh    2
       Max CFL number:  0.23E+00 at (   5,   1,  12)
       Max divergence:  0.70E-13 at (   8,   1,  10)
       Min divergence: -0.14E-13 at (  10,   1,  15)
       Max VN number:   0.15E+00 at (  16,   1,  16)
       Mesh    3
       Max CFL number:  0.23E+00 at (   5,   1,  12)
       Max divergence:  0.70E-13 at (   6,   1,  11)
       Min divergence: -0.14E-13 at (  16,   1,   6)
       Max VN number:   0.15E+00 at (  16,   1,  16)
       Mesh    4
       Max CFL number:  0.23E+00 at (  12,   1,   5)
       Max divergence:  0.95E-13 at (  11,   1,   8)
       Min divergence: -0.17E-10 at (  16,   1,  16)
       Max VN number:   0.15E+00 at (  16,   1,  16)
 
       Time Step       2   June 26, 2020  16:17:43
       Step Size:    0.116E-01 s, Total Time:       0.02 s
       Pressure Iterations:      1
       Maximum Velocity Error:  0.44E-15 on Mesh   1 at (   4   1   0)
       Maximum Pressure Error:  0.32E-08 on Mesh   4 at (  16   1  16)
       ScaRC: iterations    62, residual  0.33E-14, convergence rate   0.52E+00
       ---------------------------------------------------------------
       Mesh    1
       Max CFL number:  0.25E+00 at (  12,   1,   5)
       Max divergence:  0.37E-13 at (  10,   1,  10)
       Min divergence: -0.59E-13 at (   1,   1,   1)
       Max VN number:   0.17E+00 at (  13,   1,  13)
       Mesh    2
       Max CFL number:  0.25E+00 at (   5,   1,  12)
       Max divergence:  0.71E-13 at (   8,   1,  13)
       Min divergence: -0.93E-12 at (  16,   1,   1)
       Max VN number:   0.17E+00 at (   8,   1,  13)
       Mesh    3
       Max CFL number:  0.25E+00 at (   5,   1,  12)
       Max divergence:  0.64E-13 at (   3,   1,   8)
       Min divergence: -0.90E-12 at (   1,   1,  16)
       Max VN number:   0.17E+00 at (   6,   1,  11)
       Mesh    4
       Max CFL number:  0.25E+00 at (  12,   1,   5)
       Max divergence:  0.11E-12 at (  11,   1,   8)
       Min divergence: -0.15E-10 at (  16,   1,  16)
       Max VN number:   0.17E+00 at (  11,   1,   8)
 
       Time Step       3   June 26, 2020  16:17:43
       Step Size:    0.106E-01 s, Total Time:       0.03 s
       Pressure Iterations:      1
       Maximum Velocity Error:  0.44E-15 on Mesh   1 at (   4   1   0)
       Maximum Pressure Error:  0.32E-08 on Mesh   4 at (  16   1  16)
       ScaRC: iterations    62, residual  0.47E-14, convergence rate   0.53E+00
       ---------------------------------------------------------------
       Mesh    1
       Max CFL number:  0.23E+00 at (  12,   1,   5)
       Max divergence:  0.31E-13 at (   7,   1,  13)
       Min divergence: -0.21E-12 at (   1,   1,   1)
       Max VN number:   0.15E+00 at (  10,   1,  10)
       Mesh    2
       Max CFL number:  0.23E+00 at (   5,   1,  12)
       Max divergence:  0.60E-13 at (   8,   1,  13)
       Min divergence: -0.13E-11 at (  16,   1,   1)
       Max VN number:   0.15E+00 at (  11,   1,  14)
       Mesh    3
       Max CFL number:  0.23E+00 at (   5,   1,  12)
       Max divergence:  0.58E-13 at (   2,   1,   8)
       Min divergence: -0.12E-11 at (   1,   1,  16)
       Max VN number:   0.15E+00 at (   3,   1,  11)
       Mesh    4
       Max CFL number:  0.23E+00 at (  12,   1,   5)
       Max divergence:  0.86E-13 at (  11,   1,   5)
       Min divergence: -0.10E-10 at (  16,   1,  16)
       Max VN number:   0.15E+00 at (  11,   1,   8)
 
       Time Step       4   June 26, 2020  16:17:43
       Step Size:    0.117E-01 s, Total Time:       0.04 s
       Pressure Iterations:      1
       Maximum Velocity Error:  0.44E-15 on Mesh   1 at (   8   1   0)
       Maximum Pressure Error:  0.31E-08 on Mesh   4 at (  16   1  16)
       ScaRC: iterations    62, residual  0.44E-14, convergence rate   0.53E+00
       ---------------------------------------------------------------
       Mesh    1
       Max CFL number:  0.25E+00 at (  12,   1,   5)
       Max divergence:  0.34E-13 at (  13,   1,  10)
       Min divergence: -0.35E-12 at (   1,   1,   1)
       Max VN number:   0.17E+00 at (   7,   1,  13)
       Mesh    2
       Max CFL number:  0.25E+00 at (   5,   1,  12)
       Max divergence:  0.63E-13 at (   8,   1,  11)
       Min divergence: -0.15E-11 at (  16,   1,   1)
       Max VN number:   0.17E+00 at (  11,   1,  13)
       Mesh    3
       Max CFL number:  0.25E+00 at (   5,   1,  12)
       Max divergence:  0.57E-13 at (   7,   1,  11)
       Min divergence: -0.12E-11 at (   1,   1,  16)
       Max VN number:   0.17E+00 at (  10,   1,  11)
       Mesh    4
       Max CFL number:  0.25E+00 at (  12,   1,   5)
       Max divergence:  0.79E-13 at (  11,   1,   8)
       Min divergence: -0.94E-11 at (  16,   1,  16)
       Max VN number:   0.17E+00 at (   8,   1,   8)
 
       Time Step       5   June 26, 2020  16:17:43
       Step Size:    0.106E-01 s, Total Time:       0.06 s
       Pressure Iterations:      1
       Maximum Velocity Error:  0.44E-15 on Mesh   1 at (   5   1   0)
       Maximum Pressure Error:  0.31E-08 on Mesh   4 at (  16   1  16)
       ScaRC: iterations    62, residual  0.87E-14, convergence rate   0.53E+00
       ---------------------------------------------------------------
       Mesh    1
       Max CFL number:  0.23E+00 at (  13,   1,   5)
       Max divergence:  0.39E-13 at (  13,   1,  10)
       Min divergence: -0.45E-12 at (   1,   1,   1)
       Max VN number:   0.16E+00 at (  10,   1,  10)
       Mesh    2
       Max CFL number:  0.23E+00 at (   5,   1,  13)
       Max divergence:  0.44E-13 at (   4,   1,   9)
       Min divergence: -0.15E-11 at (  16,   1,   1)
       Max VN number:   0.16E+00 at (  11,   1,  10)
       Mesh    3
       Max CFL number:  0.23E+00 at (   5,   1,  13)
       Max divergence:  0.51E-13 at (   5,   1,   8)
       Min divergence: -0.10E-11 at (   1,   1,  16)
       Max VN number:   0.16E+00 at (  10,   1,   8)
       Mesh    4
       Max CFL number:  0.23E+00 at (  13,   1,   5)
       Max divergence:  0.61E-13 at (  11,   1,   5)
       Min divergence: -0.62E-11 at (  16,   1,  16)
       Max VN number:   0.16E+00 at (   8,   1,   8)
 
       Time Step       6   June 26, 2020  16:17:43
       Step Size:    0.117E-01 s, Total Time:       0.07 s
       Pressure Iterations:      1
       Maximum Velocity Error:  0.89E-15 on Mesh   3 at (   7   1  17)
       Maximum Pressure Error:  0.30E-08 on Mesh   4 at (  16   1  16)
       ScaRC: iterations    62, residual  0.84E-14, convergence rate   0.53E+00
       ---------------------------------------------------------------
       Mesh    1
       Max CFL number:  0.25E+00 at (  13,   1,   5)
       Max divergence:  0.35E-13 at (  13,   1,  10)
       Min divergence: -0.49E-12 at (   1,   1,   1)
       Max VN number:   0.17E+00 at (  13,   1,  13)
       Mesh    2
       Max CFL number:  0.25E+00 at (   5,   1,  13)
       Max divergence:  0.50E-13 at (   8,   1,  13)
       Min divergence: -0.15E-11 at (  16,   1,   1)
       Max VN number:   0.17E+00 at (  11,   1,  10)
       Mesh    3
       Max CFL number:  0.25E+00 at (   5,   1,  13)
       Max divergence:  0.46E-13 at (   7,   1,  11)
       Min divergence: -0.83E-12 at (   1,   1,  16)
       Max VN number:   0.17E+00 at (  10,   1,  11)
       Mesh    4
       Max CFL number:  0.25E+00 at (  13,   1,   5)
       Max divergence:  0.67E-13 at (   8,   1,   5)
       Min divergence: -0.64E-11 at (  16,   1,  16)
       Max VN number:   0.17E+00 at (   8,   1,   8)
 
       Time Step       7   June 26, 2020  16:17:43
       Step Size:    0.106E-01 s, Total Time:       0.08 s
       Pressure Iterations:      1
       Maximum Velocity Error:  0.44E-15 on Mesh   1 at (   5   1   0)
       Maximum Pressure Error:  0.30E-08 on Mesh   4 at (  16   1  16)
       ScaRC: iterations    63, residual  0.98E-14, convergence rate   0.54E+00
       ---------------------------------------------------------------
       Mesh    1
       Max CFL number:  0.23E+00 at (  13,   1,   5)
       Max divergence:  0.29E-13 at (  13,   1,   5)
       Min divergence: -0.52E-12 at (   1,   1,   1)
       Max VN number:   0.16E+00 at (  10,   1,  13)
       Mesh    2
       Max CFL number:  0.23E+00 at (   5,   1,  13)
       Max divergence:  0.45E-13 at (   8,   1,  13)
       Min divergence: -0.13E-11 at (  16,   1,   1)
       Max VN number:   0.16E+00 at (  11,   1,  10)
       Mesh    3
       Max CFL number:  0.23E+00 at (   5,   1,  13)
       Max divergence:  0.41E-13 at (   1,   1,  11)
       Min divergence: -0.72E-12 at (   1,   1,  15)
       Max VN number:   0.16E+00 at (  10,   1,  11)
       Mesh    4
       Max CFL number:  0.23E+00 at (  13,   1,   5)
       Max divergence:  0.60E-13 at (  11,   1,   8)
       Min divergence: -0.40E-11 at (  16,   1,  16)
       Max VN number:   0.16E+00 at (   8,   1,  11)
 
       Time Step       8   June 26, 2020  16:17:43
       Step Size:    0.117E-01 s, Total Time:       0.09 s
       Pressure Iterations:      1
       Maximum Velocity Error:  0.44E-15 on Mesh   1 at (   2   1   0)
       Maximum Pressure Error:  0.29E-08 on Mesh   4 at (  16   1  16)
       ScaRC: iterations    63, residual  0.98E-14, convergence rate   0.54E+00
       ---------------------------------------------------------------
       Mesh    1
       Max CFL number:  0.25E+00 at (  13,   1,   5)
       Max divergence:  0.28E-13 at (  13,   1,   7)
       Min divergence: -0.47E-12 at (   1,   1,   1)
       Max VN number:   0.17E+00 at (  13,   1,  10)
       Mesh    2
       Max CFL number:  0.25E+00 at (   5,   1,  13)
       Max divergence:  0.46E-13 at (   8,   1,  10)
       Min divergence: -0.13E-11 at (  16,   1,   1)
       Max VN number:   0.17E+00 at (  11,   1,  10)
       Mesh    3
       Max CFL number:  0.25E+00 at (   5,   1,  13)
       Max divergence:  0.53E-13 at (   7,   1,  11)
       Min divergence: -0.80E-12 at (   1,   1,  15)
       Max VN number:   0.17E+00 at (   6,   1,   8)
       Mesh    4
       Max CFL number:  0.25E+00 at (  13,   1,   5)
       Max divergence:  0.71E-13 at (  11,   1,   8)
       Min divergence: -0.46E-11 at (  16,   1,  16)
       Max VN number:   0.17E+00 at (   8,   1,   8)
 
       Time Step       9   June 26, 2020  16:17:43
       Step Size:    0.107E-01 s, Total Time:       0.10 s
       Pressure Iterations:      1
       Maximum Velocity Error:  0.44E-15 on Mesh   1 at (   5   1   0)
       Maximum Pressure Error:  0.29E-08 on Mesh   4 at (  16   1  16)
       ScaRC: iterations    63, residual  0.98E-14, convergence rate   0.54E+00
       ---------------------------------------------------------------
       Mesh    1
       Max CFL number:  0.23E+00 at (  13,   1,   5)
       Max divergence:  0.31E-13 at (  13,   1,  12)
       Min divergence: -0.41E-12 at (   1,   1,   1)
       Max VN number:   0.16E+00 at (  13,   1,  13)
       Mesh    2
       Max CFL number:  0.23E+00 at (   5,   1,  13)
       Max divergence:  0.43E-13 at (   5,   1,  10)
       Min divergence: -0.11E-11 at (  16,   1,   1)
       Max VN number:   0.16E+00 at (  11,   1,  10)
       Mesh    3
       Max CFL number:  0.23E+00 at (   5,   1,  13)
       Max divergence:  0.17E-12 at (   1,   1,  16)
       Min divergence: -0.89E-12 at (   1,   1,  15)
       Max VN number:   0.16E+00 at (  10,   1,  11)
       Mesh    4
       Max CFL number:  0.23E+00 at (  13,   1,   5)
       Max divergence:  0.52E-13 at (  11,   1,   4)
       Min divergence: -0.27E-11 at (  15,   1,  16)
       Max VN number:   0.16E+00 at (   8,   1,  11)
 
       Time Step      10   June 26, 2020  16:17:43
       Step Size:    0.117E-01 s, Total Time:       0.11 s
       Pressure Iterations:      1
       Maximum Velocity Error:  0.44E-15 on Mesh   1 at (   6   1   0)
       Maximum Pressure Error:  0.28E-08 on Mesh   4 at (  16   1  16)
       ScaRC: iterations    64, residual  0.38E-14, convergence rate   0.54E+00
       ---------------------------------------------------------------
       Mesh    1
       Max CFL number:  0.25E+00 at (  13,   1,   5)
       Max divergence:  0.27E-13 at (  10,   1,   5)
       Min divergence: -0.35E-12 at (   1,   1,   2)
       Max VN number:   0.17E+00 at (  13,   1,  13)
       Mesh    2
       Max CFL number:  0.25E+00 at (   5,   1,  13)
       Max divergence:  0.48E-13 at (   8,   1,  10)
       Min divergence: -0.10E-11 at (  16,   1,   1)
       Max VN number:   0.17E+00 at (  11,   1,  10)
       Mesh    3
       Max CFL number:  0.25E+00 at (   5,   1,  13)
       Max divergence:  0.46E-12 at (   1,   1,  16)
       Min divergence: -0.96E-12 at (   1,   1,  15)
       Max VN number:   0.17E+00 at (  10,   1,  11)
       Mesh    4
       Max CFL number:  0.25E+00 at (  13,   1,   5)
       Max divergence:  0.55E-13 at (   8,   1,   4)
       Min divergence: -0.34E-11 at (  16,   1,  16)
       Max VN number:   0.17E+00 at (   8,   1,  11)
 
       Time Step      20   June 26, 2020  16:17:44
       Step Size:    0.119E-01 s, Total Time:       0.22 s
       Pressure Iterations:      1
       Maximum Velocity Error:  0.44E-15 on Mesh   1 at (   9   1   0)
       Maximum Pressure Error:  0.22E-08 on Mesh   4 at (  16   1  16)
       ScaRC: iterations    64, residual  0.38E-14, convergence rate   0.54E+00
       ---------------------------------------------------------------
       Mesh    1
       Max CFL number:  0.25E+00 at (  13,   1,   6)
       Max divergence:  0.58E-12 at (   1,   1,   1)
       Min divergence: -0.33E-12 at (   1,   1,   2)
       Max VN number:   0.17E+00 at (  13,   1,  10)
       Mesh    2
       Max CFL number:  0.25E+00 at (   6,   1,  13)
       Max divergence:  0.40E-13 at (   4,   1,  10)
       Min divergence: -0.11E-11 at (  15,   1,   1)
       Max VN number:   0.17E+00 at (  11,   1,  13)
       Mesh    3
       Max CFL number:  0.25E+00 at (   6,   1,  13)
       Max divergence:  0.25E-11 at (   1,   1,  16)
       Min divergence: -0.12E-11 at (   1,   1,  15)
       Max VN number:   0.17E+00 at (  10,   1,   8)
       Mesh    4
       Max CFL number:  0.25E+00 at (  13,   1,   6)
       Max divergence:  0.49E-13 at (  11,   1,   4)
       Min divergence: -0.26E-11 at (  15,   1,  16)
       Max VN number:   0.17E+00 at (   8,   1,   8)
 
       Time Step      30   June 26, 2020  16:17:44
       Step Size:    0.120E-01 s, Total Time:       0.34 s
       Pressure Iterations:      1
       Maximum Velocity Error:  0.44E-15 on Mesh   1 at (   9   1   0)
       Maximum Pressure Error:  0.16E-08 on Mesh   4 at (  16   1  16)
       ScaRC: iterations    63, residual  0.94E-14, convergence rate   0.54E+00
       ---------------------------------------------------------------
       Mesh    1
       Max CFL number:  0.25E+00 at (  14,   1,   6)
       Max divergence:  0.75E-12 at (   2,   1,   1)
       Min divergence: -0.18E-12 at (   1,   1,   3)
       Max VN number:   0.18E+00 at (  13,   1,  10)
       Mesh    2
       Max CFL number:  0.25E+00 at (   6,   1,  14)
       Max divergence:  0.44E-13 at (   4,   1,  12)
       Min divergence: -0.91E-12 at (  15,   1,   1)
       Max VN number:   0.18E+00 at (  11,   1,  13)
       Mesh    3
       Max CFL number:  0.25E+00 at (   6,   1,  14)
       Max divergence:  0.28E-11 at (   1,   1,  16)
       Min divergence: -0.11E-11 at (   1,   1,  15)
       Max VN number:   0.18E+00 at (  10,   1,   8)
       Mesh    4
       Max CFL number:  0.25E+00 at (  14,   1,   6)
       Max divergence:  0.19E-12 at (  16,   1,  16)
       Min divergence: -0.22E-11 at (  15,   1,  16)
       Max VN number:   0.18E+00 at (   8,   1,   8)
 
       Time Step      40   June 26, 2020  16:17:44
       Step Size:    0.121E-01 s, Total Time:       0.45 s
       Pressure Iterations:      1
       Maximum Velocity Error:  0.44E-15 on Mesh   1 at (  12   1   0)
       Maximum Pressure Error:  0.96E-09 on Mesh   4 at (  16   1  16)
       ScaRC: iterations    63, residual  0.86E-14, convergence rate   0.55E+00
       ---------------------------------------------------------------
       Mesh    1
       Max CFL number:  0.25E+00 at (  15,   1,   7)
       Max divergence:  0.75E-12 at (   1,   1,   1)
       Min divergence: -0.14E-12 at (   1,   1,   3)
       Max VN number:   0.18E+00 at (  11,   1,   1)
       Mesh    2
       Max CFL number:  0.25E+00 at (   7,   1,  15)
       Max divergence:  0.31E-13 at (   4,   1,   9)
       Min divergence: -0.70E-12 at (  16,   1,   1)
       Max VN number:   0.18E+00 at (  11,   1,  14)
       Mesh    3
       Max CFL number:  0.25E+00 at (   7,   1,  15)
       Max divergence:  0.22E-11 at (   1,   1,  16)
       Min divergence: -0.70E-12 at (   1,   1,  15)
       Max VN number:   0.18E+00 at (  10,   1,  11)
       Mesh    4
       Max CFL number:  0.25E+00 at (  15,   1,   7)
       Max divergence:  0.81E-12 at (  16,   1,  16)
       Min divergence: -0.15E-11 at (  15,   1,  16)
       Max VN number:   0.18E+00 at (   8,   1,  11)
 
       Time Step      50   June 26, 2020  16:17:44
       Step Size:    0.123E-01 s, Total Time:       0.57 s
       Pressure Iterations:      1
       Maximum Velocity Error:  0.44E-15 on Mesh   1 at (  10   1   0)
       Maximum Pressure Error:  0.41E-09 on Mesh   4 at (  16   1  16)
       ScaRC: iterations    63, residual  0.68E-14, convergence rate   0.55E+00
       ---------------------------------------------------------------
       Mesh    1
       Max CFL number:  0.25E+00 at (  15,   1,   8)
       Max divergence:  0.56E-12 at (   2,   1,   1)
       Min divergence: -0.15E-12 at (   1,   1,   3)
       Max VN number:   0.18E+00 at (  11,   1,   1)
       Mesh    2
       Max CFL number:  0.25E+00 at (   8,   1,  15)
       Max divergence:  0.24E-13 at (   4,   1,   8)
       Min divergence: -0.57E-12 at (  16,   1,   1)
       Max VN number:   0.18E+00 at (  11,   1,  14)
       Mesh    3
       Max CFL number:  0.25E+00 at (   8,   1,  15)
       Max divergence:  0.14E-11 at (   1,   1,  16)
       Min divergence: -0.33E-12 at (   2,   1,  15)
       Max VN number:   0.18E+00 at (   1,   1,  11)
       Mesh    4
       Max CFL number:  0.25E+00 at (  15,   1,   8)
       Max divergence:  0.11E-11 at (  16,   1,  16)
       Min divergence: -0.84E-12 at (  15,   1,  16)
       Max VN number:   0.18E+00 at (  11,   1,  11)
 
       Time Step      60   June 26, 2020  16:17:45
       Step Size:    0.124E-01 s, Total Time:       0.69 s
       Pressure Iterations:      1
       Maximum Velocity Error:  0.44E-15 on Mesh   2 at (   2   1   0)
       Maximum Pressure Error:  0.43E-11 on Mesh   4 at (  16   1  16)
       ScaRC: iterations    54, residual  0.95E-14, convergence rate   0.50E+00
       ---------------------------------------------------------------
       Mesh    1
       Max CFL number:  0.25E+00 at (  16,   1,   8)
       Max divergence:  0.47E-12 at (   2,   1,   1)
       Min divergence: -0.14E-12 at (   1,   1,   3)
       Max VN number:   0.18E+00 at (  12,   1,   1)
       Mesh    2
       Max CFL number:  0.25E+00 at (   8,   1,  16)
       Max divergence:  0.16E-13 at (  15,   1,   9)
       Min divergence: -0.20E-12 at (  16,   1,   2)
       Max VN number:   0.18E+00 at (  11,   1,  14)
       Mesh    3
       Max CFL number:  0.25E+00 at (   8,   1,  16)
       Max divergence:  0.85E-12 at (   1,   1,  16)
       Min divergence: -0.18E-12 at (   1,   1,  14)
       Max VN number:   0.18E+00 at (   1,   1,  11)
       Mesh    4
       Max CFL number:  0.25E+00 at (  16,   1,   8)
       Max divergence:  0.89E-12 at (  16,   1,  16)
       Min divergence: -0.26E-12 at (  16,   1,  15)
       Max VN number:   0.18E+00 at (  11,   1,  11)
 
       Time Step      70   June 26, 2020  16:17:45
       Step Size:    0.126E-01 s, Total Time:       0.81 s
       Pressure Iterations:      1
       Maximum Velocity Error:  0.44E-15 on Mesh   3 at (   7   1  17)
       Maximum Pressure Error:  0.25E-09 on Mesh   4 at (  16   1  16)
       ScaRC: iterations    63, residual  0.38E-14, convergence rate   0.54E+00
       ---------------------------------------------------------------
       Mesh    1
       Max CFL number:  0.25E+00 at (  16,   1,   9)
       Max divergence:  0.38E-12 at (   3,   1,   1)
       Min divergence: -0.98E-13 at (   1,   1,   3)
       Max VN number:   0.18E+00 at (  12,   1,   1)
       Mesh    2
       Max CFL number:  0.25E+00 at (   9,   1,  16)
       Max divergence:  0.11E-12 at (  16,   1,   1)
       Min divergence: -0.79E-13 at (  16,   1,   3)
       Max VN number:   0.18E+00 at (  11,   1,  14)
       Mesh    3
       Max CFL number:  0.25E+00 at (   9,   1,  16)
       Max divergence:  0.37E-12 at (   2,   1,  16)
       Min divergence: -0.12E-12 at (   3,   1,  14)
       Max VN number:   0.18E+00 at (   1,   1,  11)
       Mesh    4
       Max CFL number:  0.25E+00 at (  16,   1,   9)
       Max divergence:  0.78E-12 at (  16,   1,  16)
       Min divergence: -0.38E-13 at (  16,   1,  14)
       Max VN number:   0.18E+00 at (  12,   1,  11)
 
       Time Step      80   June 26, 2020  16:17:45
       Step Size:    0.127E-01 s, Total Time:       0.93 s
       Pressure Iterations:      1
       Maximum Velocity Error:  0.22E-15 on Mesh   1 at (   0   1   5)
       Maximum Pressure Error:  0.35E-09 on Mesh   4 at (  16   1  16)
       ScaRC: iterations    63, residual  0.33E-14, convergence rate   0.54E+00
       ---------------------------------------------------------------
       Mesh    1
       Max CFL number:  0.25E+00 at (   9,   1,   1)
       Max divergence:  0.26E-12 at (   4,   1,   1)
       Min divergence: -0.59E-13 at (   2,   1,   4)
       Max VN number:   0.19E+00 at (  13,   1,   1)
       Mesh    2
       Max CFL number:  0.25E+00 at (   1,   1,   9)
       Max divergence:  0.30E-12 at (  16,   1,   1)
       Min divergence: -0.36E-13 at (  16,   1,   3)
       Max VN number:   0.19E+00 at (  11,   1,  14)
       Mesh    3
       Max CFL number:  0.25E+00 at (   1,   1,   9)
       Max divergence:  0.12E-12 at (   3,   1,  16)
       Min divergence: -0.33E-12 at (   1,   1,  16)
       Max VN number:   0.19E+00 at (   1,   1,  16)
       Mesh    4
       Max CFL number:  0.25E+00 at (   9,   1,   1)
       Max divergence:  0.60E-12 at (  16,   1,  16)
       Min divergence: -0.22E-13 at (  11,   1,  12)
       Max VN number:   0.19E+00 at (  16,   1,  16)
 
       Time Step      90   June 26, 2020  16:17:45
       Step Size:    0.129E-01 s, Total Time:       1.05 s
       Pressure Iterations:      1
       Maximum Velocity Error:  0.22E-15 on Mesh   1 at (  17   1  10)
       Maximum Pressure Error:  0.35E-09 on Mesh   4 at (  16   1  16)
       ScaRC: iterations    63, residual  0.22E-14, convergence rate   0.54E+00
       ---------------------------------------------------------------
       Mesh    1
       Max CFL number:  0.25E+00 at (  10,   1,   2)
       Max divergence:  0.19E-12 at (   5,   1,   2)
       Min divergence: -0.49E-13 at (  11,   1,   4)
       Max VN number:   0.19E+00 at (   1,   1,   1)
       Mesh    2
       Max CFL number:  0.25E+00 at (   2,   1,  10)
       Max divergence:  0.26E-12 at (  16,   1,   1)
       Min divergence: -0.26E-13 at (  16,   1,   4)
       Max VN number:   0.19E+00 at (  16,   1,   1)
       Mesh    3
       Max CFL number:  0.25E+00 at (   2,   1,  10)
       Max divergence:  0.17E-12 at (   1,   1,  15)
       Min divergence: -0.46E-12 at (   1,   1,  16)
       Max VN number:   0.19E+00 at (   1,   1,  16)
       Mesh    4
       Max CFL number:  0.25E+00 at (  10,   1,   2)
       Max divergence:  0.39E-12 at (  15,   1,  16)
       Min divergence: -0.20E-13 at (   7,   1,  13)
       Max VN number:   0.19E+00 at (  16,   1,  16)
 
       Time Step     100   June 26, 2020  16:17:46
       Step Size:    0.130E-01 s, Total Time:       1.17 s
       Pressure Iterations:      1
       Maximum Velocity Error:  0.22E-15 on Mesh   1 at (   0   1   8)
       Maximum Pressure Error:  0.28E-09 on Mesh   4 at (  16   1  16)
       ScaRC: iterations    62, residual  0.86E-14, convergence rate   0.55E+00
       ---------------------------------------------------------------
       Mesh    1
       Max CFL number:  0.25E+00 at (  11,   1,   2)
       Max divergence:  0.14E-12 at (   9,   1,   3)
       Min divergence: -0.98E-13 at (   2,   1,   1)
       Max VN number:   0.19E+00 at (   1,   1,   1)
       Mesh    2
       Max CFL number:  0.25E+00 at (   2,   1,  11)
       Max divergence:  0.13E-12 at (  15,   1,   1)
       Min divergence: -0.16E-13 at (  12,   1,   3)
       Max VN number:   0.19E+00 at (  16,   1,   1)
       Mesh    3
       Max CFL number:  0.25E+00 at (   2,   1,  11)
       Max divergence:  0.19E-12 at (   1,   1,  15)
       Min divergence: -0.44E-12 at (   1,   1,  16)
       Max VN number:   0.19E+00 at (   1,   1,  16)
       Mesh    4
       Max CFL number:  0.25E+00 at (  11,   1,   2)
       Max divergence:  0.36E-12 at (  15,   1,  16)
       Min divergence: -0.19E-13 at (   9,   1,  13)
       Max VN number:   0.19E+00 at (  16,   1,  16)
 
       Time Step     200   June 26, 2020  16:17:48
       Step Size:    0.146E-01 s, Total Time:       2.49 s
       Pressure Iterations:      1
       Maximum Velocity Error:  0.44E-15 on Mesh   4 at (  17   1   3)
       Maximum Pressure Error:  0.39E-09 on Mesh   4 at (  16   1  16)
       ScaRC: iterations    63, residual  0.35E-14, convergence rate   0.55E+00
       ---------------------------------------------------------------
       Mesh    1
       Max CFL number:  0.25E+00 at (   9,   1,   1)
       Max divergence:  0.35E-13 at (  13,   1,  13)
       Min divergence: -0.82E-13 at (   1,   1,   2)
       Max VN number:   0.21E+00 at (   1,   1,   4)
       Mesh    2
       Max CFL number:  0.25E+00 at (   1,   1,   9)
       Max divergence:  0.14E-12 at (  16,   1,   1)
       Min divergence: -0.10E-12 at (  15,   1,   1)
       Max VN number:   0.21E+00 at (  16,   1,   4)
       Mesh    3
       Max CFL number:  0.25E+00 at (   1,   1,   9)
       Max divergence:  0.24E-13 at (  14,   1,   1)
       Min divergence: -0.24E-12 at (   1,   1,  16)
       Max VN number:   0.21E+00 at (   3,   1,  16)
       Mesh    4
       Max CFL number:  0.25E+00 at (   9,   1,   1)
       Max divergence:  0.23E-13 at (  11,   1,   8)
       Min divergence: -0.10E-11 at (  16,   1,  16)
       Max VN number:   0.21E+00 at (  16,   1,  13)
 
       Time Step     300   June 26, 2020  16:17:51
       Step Size:    0.162E-01 s, Total Time:       3.96 s
       Pressure Iterations:      1
       Maximum Velocity Error:  0.22E-15 on Mesh   1 at (   7   1   0)
       Maximum Pressure Error:  0.68E-10 on Mesh   4 at (  16   1  16)
       ScaRC: iterations    59, residual  0.96E-14, convergence rate   0.54E+00
       ---------------------------------------------------------------
       Mesh    1
       Max CFL number:  0.25E+00 at (  16,   1,   9)
       Max divergence:  0.18E-12 at (   2,   1,   1)
       Min divergence: -0.36E-13 at (   7,   1,   1)
       Max VN number:   0.24E+00 at (  15,   1,  10)
       Mesh    2
       Max CFL number:  0.25E+00 at (   9,   1,  16)
       Max divergence:  0.43E-13 at (  16,   1,   1)
       Min divergence: -0.50E-13 at (  16,   1,   4)
       Max VN number:   0.24E+00 at (   1,   1,  10)
       Mesh    3
       Max CFL number:  0.25E+00 at (   9,   1,  16)
       Max divergence:  0.95E-13 at (   2,   1,  16)
       Min divergence: -0.60E-13 at (   3,   1,  15)
       Max VN number:   0.24E+00 at (   9,   1,  11)
       Mesh    4
       Max CFL number:  0.25E+00 at (  16,   1,   9)
       Max divergence:  0.26E-12 at (  16,   1,  16)
       Min divergence: -0.24E-13 at (  16,   1,  14)
       Max VN number:   0.24E+00 at (  16,   1,   1)
 
       Time Step     400   June 26, 2020  16:17:55
       Step Size:    0.179E-01 s, Total Time:       5.59 s
       Pressure Iterations:      1
       Maximum Velocity Error:  0.22E-15 on Mesh   1 at (   1   1   0)
       Maximum Pressure Error:  0.78E-10 on Mesh   4 at (  16   1  16)
       ScaRC: iterations    62, residual  0.40E-14, convergence rate   0.55E+00
       ---------------------------------------------------------------
       Mesh    1
       Max CFL number:  0.25E+00 at (   9,   1,   1)
       Max divergence:  0.29E-13 at (  12,   1,  14)
       Min divergence: -0.41E-13 at (   1,   1,   2)
       Max VN number:   0.26E+00 at (   3,   1,   3)
       Mesh    2
       Max CFL number:  0.25E+00 at (   1,   1,   9)
       Max divergence:  0.13E-13 at (   1,   1,  10)
       Min divergence: -0.31E-13 at (  16,   1,   2)
       Max VN number:   0.26E+00 at (  16,   1,  15)
       Mesh    3
       Max CFL number:  0.25E+00 at (   1,   1,   9)
       Max divergence:  0.12E-13 at (   3,   1,  16)
       Min divergence: -0.52E-13 at (   1,   1,  16)
       Max VN number:   0.26E+00 at (   9,   1,  13)
       Mesh    4
       Max CFL number:  0.25E+00 at (   9,   1,   1)
       Max divergence:  0.17E-13 at (  13,   1,  10)
       Min divergence: -0.30E-12 at (  16,   1,  16)
       Max VN number:   0.26E+00 at (  16,   1,   1)
 
       Time Step     440   June 26, 2020  16:17:56
       Step Size:    0.127E-01 s, Total Time:       6.28 s
       Pressure Iterations:      1
       Maximum Velocity Error:  0.22E-15 on Mesh   1 at (   2   1   0)
       Maximum Pressure Error:  0.27E-09 on Mesh   4 at (  16   1  16)
       ScaRC: iterations    63, residual  0.10E-14, convergence rate   0.54E+00
       ---------------------------------------------------------------
       Mesh    1
       Max CFL number:  0.17E+00 at (  12,   1,   5)
       Max divergence:  0.19E-12 at (   1,   1,   1)
       Min divergence: -0.18E-13 at (  16,   1,   7)
       Max VN number:   0.19E+00 at (   1,   1,  15)
       Mesh    2
       Max CFL number:  0.17E+00 at (   5,   1,  12)
       Max divergence:  0.26E-12 at (  16,   1,   1)
       Min divergence: -0.21E-12 at (  15,   1,   1)
       Max VN number:   0.19E+00 at (  16,   1,  15)
       Mesh    3
       Max CFL number:  0.17E+00 at (   5,   1,  12)
       Max divergence:  0.24E-12 at (   1,   1,  16)
       Min divergence: -0.21E-12 at (   1,   1,  15)
       Max VN number:   0.19E+00 at (  10,   1,  14)
       Mesh    4
       Max CFL number:  0.17E+00 at (  12,   1,   5)
       Max divergence:  0.44E-12 at (  16,   1,  16)
       Min divergence: -0.46E-12 at (  16,   1,  15)
       Max VN number:   0.19E+00 at (  16,   1,   1)
 


 Time Stepping Wall Clock Time (s):       13.504
 Total Elapsed Wall Clock Time (s):       13.958

STOP: FDS completed successfully (CHID: ns2d_4mesh_32_scarc_nupt1)
