
 Fire Dynamics Simulator

 Current Date     : February 19, 2020  19:33:22
 Revision         : -master
 Revision Date    : Wed Feb 19 18:38:00 2020 +0100
 Compiler         : Intel ifort 18.0.1
 Compilation Date : Feb 19, 2020 18:48:59

 MPI Enabled;    Number of MPI Processes:       1
 OpenMP Enabled; Number of OpenMP Threads:      4

 MPI version: 3.1
 MPI library version: Intel(R) MPI Library 2018 Update 1 for Linux* OS


 Job TITLE        : Test of smoke leaking under a door
 Job ID string    : door_crack


 Grid Dimensions, Mesh     1

   Cells in the X Direction            25
   Cells in the Y Direction            20
   Cells in the Z Direction            16
   Number of Grid Cells              8000


 Physical Dimensions, Mesh     1

   Length (m)                       5.000
   Width  (m)                       4.000
   Height (m)                       3.200
   Initial Time Step (s)            0.177

Total Number of Grid Cells          8000


 Miscellaneous Parameters

   Simulation Start Time (s)          0.0
   Simulation End Time (s)         1800.0
   LES Calculation
   Eddy Viscosity:           Deardorff Model (C_DEARDORFF = 0.10)
   Near-wall Eddy Viscosity: Smagorinsky with Van Driest damping (C_SMAGORINSKY = 0.20)
   Turbulent Prandtl Number:         0.50
   Turbulent Schmidt Number:         0.50
   Ambient Temperature (C):         20.00


 Mass Fraction Transformation Matrix to Convert Species Mixtures (Columns) to Primitive Species (Rows)

                         AIR       PROPANE   PRODUCTS
   PROPANE               0.000000  1.000000  0.000000
   NITROGEN              0.762470  0.000000  0.716510
   OXYGEN                0.230997  0.000000  0.000000
   CARBON DIOXIDE        0.000591  0.000000  0.178848
   CARBON MONOXIDE       0.000000  0.000000  0.000000
   WATER VAPOR           0.005941  0.000000  0.104039
   SOOT                  0.000000  0.000000  0.000603
   HYDROGEN              0.000000  0.000000  0.000000


 Primitive Species Information

   PROPANE
   Gas Species
   Molecular Weight (g/mol)            44.09562
   Ambient Density (kg/m^3)            1.833
   Enthalpy of Formation (J/kg)       -2.37E+06

   NITROGEN
   Gas Species
   Molecular Weight (g/mol)            28.01340
   Ambient Density (kg/m^3)            1.165
   Enthalpy of Formation (J/kg)        0.00E+00

   OXYGEN
   Gas Species
   Molecular Weight (g/mol)            31.99880
   Ambient Density (kg/m^3)            1.330
   Enthalpy of Formation (J/kg)        0.00E+00

   CARBON DIOXIDE
   Gas Species
   Molecular Weight (g/mol)            44.00950
   Ambient Density (kg/m^3)            1.830
   Enthalpy of Formation (J/kg)       -8.94E+06

   CARBON MONOXIDE
   Gas Species
   Molecular Weight (g/mol)            28.01010
   Ambient Density (kg/m^3)            1.164
   Enthalpy of Formation (J/kg)       -3.95E+06

   WATER VAPOR
   Gas Species
   Molecular Weight (g/mol)            18.01528
   Ambient Density (kg/m^3)            0.749
   Enthalpy of Formation (J/kg)       -1.34E+07

   SOOT
   Gas Species
   Molecular Weight (g/mol)            10.91042
   Ambient Density (kg/m^3)            0.454
   Enthalpy of Formation (J/kg)        0.00E+00

   HYDROGEN
   Gas Species
   Molecular Weight (g/mol)             2.01588
   Ambient Density (kg/m^3)            0.084
   Enthalpy of Formation (J/kg)        0.00E+00


 Tracked (Lumped) Species Information

   AIR
   Molecular Weight (g/mol)            28.75199
   Ambient Density (kg/m^3)            1.195
   Initial Mass Fraction               1.000
   Enthalpy of Formation (J/kg)     -8.50E+04

   Sub Species                    Mass Fraction     Mole Fraction
   NITROGEN                       7.624701E-01      7.825730E-01
   OXYGEN                         2.309974E-01      2.075589E-01
   CARBON DIOXIDE                 5.914651E-04      3.864120E-04
   WATER VAPOR                    5.940984E-03      9.481679E-03
 
     Viscosity (kg/m/s) Ambient,  293 K:  1.80E-05
                                  500 K:  2.61E-05
                                 1000 K:  4.13E-05
                                 1500 K:  5.37E-05
   Therm. Cond. (W/m/K) Ambient,  293 K:  2.56E-02
                                  500 K:  3.81E-02
                                 1000 K:  6.69E-02
                                 1500 K:  9.25E-02
        Enthalpy (J/kg) Ambient,  293 K: -9.01E+04
                                  500 K:  1.22E+05
                                 1000 K:  6.72E+05
                                 1500 K:  1.27E+06
    Spec. Heat (J/kg/K) Ambient,  293 K:  1.02E+03
                                  500 K:  1.04E+03
                                 1000 K:  1.16E+03
                                 1500 K:  1.23E+03
   Diff. Coeff. (m^2/s) Ambient,  293 K:  1.99E-05
                                  500 K:  4.96E-05
                                 1000 K:  1.58E-04
                                 1500 K:  3.09E-04

   PROPANE
   Molecular Weight (g/mol)            44.09562
   Ambient Density (kg/m^3)            1.833
   Initial Mass Fraction               0.000
   Enthalpy of Formation (J/kg)     -2.37E+06

   Sub Species                    Mass Fraction     Mole Fraction
   PROPANE                        1.000000E+00      1.000000E+00
 
     Viscosity (kg/m/s) Ambient,  293 K:  8.08E-06
                                  500 K:  1.31E-05
                                 1000 K:  2.23E-05
                                 1500 K:  2.96E-05
   Therm. Cond. (W/m/K) Ambient,  293 K:  1.66E-02
                                  500 K:  4.18E-02
                                 1000 K:  1.11E-01
                                 1500 K:  1.72E-01
        Enthalpy (J/kg) Ambient,  293 K: -2.38E+06
                                  500 K: -1.95E+06
                                 1000 K: -2.77E+05
                                 1500 K:  1.90E+06
    Spec. Heat (J/kg/K) Ambient,  293 K:  1.65E+03
                                  500 K:  2.55E+03
                                 1000 K:  3.96E+03
                                 1500 K:  4.67E+03
   Diff. Coeff. (m^2/s) Ambient,  293 K:  1.11E-05
                                  500 K:  2.86E-05
                                 1000 K:  9.32E-05
                                 1500 K:  1.83E-04

   PRODUCTS
   Molecular Weight (g/mol)            28.19160
   Ambient Density (kg/m^3)            1.172
   Initial Mass Fraction               0.000
   Enthalpy of Formation (J/kg)     -3.00E+06

   Sub Species                    Mass Fraction     Mole Fraction
   NITROGEN                       7.165100E-01      7.210680E-01
   CARBON DIOXIDE                 1.788479E-01      1.145664E-01
   CARBON MONOXIDE                0.000000E+00      0.000000E+00
   WATER VAPOR                    1.040393E-01      1.628081E-01
   SOOT                           6.027786E-04      1.557528E-03
 
     Viscosity (kg/m/s) Ambient,  293 K:  1.61E-05
                                  500 K:  2.39E-05
                                 1000 K:  3.89E-05
                                 1500 K:  5.14E-05
   Therm. Cond. (W/m/K) Ambient,  293 K:  2.34E-02
                                  500 K:  3.62E-02
                                 1000 K:  6.71E-02
                                 1500 K:  9.63E-02
        Enthalpy (J/kg) Ambient,  293 K: -3.00E+06
                                  500 K: -2.77E+06
                                 1000 K: -2.16E+06
                                 1500 K: -1.48E+06
    Spec. Heat (J/kg/K) Ambient,  293 K:  1.09E+03
                                  500 K:  1.14E+03
                                 1000 K:  1.30E+03
                                 1500 K:  1.40E+03
   Diff. Coeff. (m^2/s) Ambient,  293 K:  1.95E-05
                                  500 K:  4.95E-05
                                 1000 K:  1.60E-04
                                 1500 K:  3.15E-04


 Gas Phase Reaction Information

   Fuel                                           Heat of Combustion (kJ/kg)
   PROPANE                                                        45998.9362

   Stoichiometry

   Primitive Species Stoich. Coeff.
   Species ID                                                          Molar
   PROPANE                                                         -1.000000
   NITROGEN                                                         0.000000
   OXYGEN                                                          -4.962615
   CARBON DIOXIDE                                                   2.963626
   WATER VAPOR                                                      3.997979
   SOOT                                                             0.040416

   Tracked (Lumped) Species Stoich. Coeff.
   Species ID                                             Molar         Mass
   AIR                                               -23.909431   -15.589840
   PROPANE                                            -1.000000    -1.000000
   PRODUCTS                                           25.948837    16.589840

   Reaction Kinetics

   Arrhenius Parameters
   Pre-exponential:    Infinite
   Activation Energy:  N/A

   ODE Solver:  EXPLICIT EULER
   Extinction Model:  EXTINCTION 2
   Auto-Ignition Temperature (K):       0.0
   Critical Flame Temperature (K):   1720.2


 Material Information


 Surface Conditions

   0 INERT (DEFAULT)

   1 DOOR CRACK

   2 BURNER
     HRR Per Unit Area (kW/m2)       1000.0
     PROPANE Mass Flux (kg/s/m2)   2.17E-02

   3 OPEN
     Passive Vent to Atmosphere

   4 MIRROR
     Symmetry Plane

   5 INTERPOLATED

   6 PERIODIC

   7 HVAC

   8 MASSLESS TRACER

   9 DROPLET

  10 EVACUATION_OUTFLOW
     Normal Velocity (m/s)         0.000

  11 MASSLESS TARGET

  12 PERIODIC WIND

  13 SLICE


 Device Coordinates

     1 Coords:      0.000000      0.000000      0.500000, Make: null, ID: Pressure, Quantity: PRESSURE
     2 Coords:     -2.400000     -2.000000      0.000000, Make: null, ID: Velocity, Quantity: DUCT VELOCITY
     3 Coords:     -2.400000     -2.000000      0.000000, Make: null, ID: Pressure Ambient, Quantity: NODE PRESSURE
     4 Coords:     -2.400000     -2.000000      0.000000, Make: null, ID: Pressure Compartment, Quantity: NODE PRESSURE


 Slice File Information, Mesh     1

   Sampling Interval (s)             1.800

   1 Nodes:   0  25  10  10   0  16, Quantity: TEMPERATURE
   2 Nodes:   0  25  10  10   0  16, Quantity: U-VELOCITY
   3 Nodes:   0  25  10  10   0  16, Quantity: V-VELOCITY
   4 Nodes:   0  25  10  10   0  16, Quantity: W-VELOCITY
   5 Nodes:   0  25  10  10   0  16, Quantity: PROPANE MASS FRACTION
   6 Nodes:   0  25  10  10   0  16, Quantity: OXYGEN MASS FRACTION
   7 Nodes:   0  25  10  10   0  16, Quantity: PRESSURE


 Radiation Model Information

   Number of control angles  104
   Time step increment         3
   Angle increment             5
   Theta band N_phi   Solid angle
     1:        4     0.120
     2:       12     0.114
     3:       16     0.127
     4:       20     0.120
     5:       20     0.120
     6:       16     0.127
     7:       12     0.114
     8:        4     0.120
   Using gray gas absorption.
   Mean beam length  0.100 m
 
 

 Run Time Diagnostics

       Time Step       1   February 19, 2020  19:33:22
       Step Size:    0.177E+00 s, Total Time:       0.18 s
       Pressure Iterations:      1
       Maximum Velocity Error:  0.34E-02 on Mesh   1 at (  13   5   1)
       Maximum Pressure Error:  0.30E+01 on Mesh   1 at (  13  10   1)
       ---------------------------------------------------------------
       Max CFL number:  0.17E-01 at (  20,  17,   7)
       Max divergence:  0.72E+00 at (  12,  11,   1)
       Min divergence: -0.22E-02 at (  13,  10,   2)
       Max VN number:   0.12E-01 at (   9,   7,   8)
       Total Heat Release Rate:              8.172 kW
 
       Time Step       2   February 19, 2020  19:33:22
       Step Size:    0.177E+00 s, Total Time:       0.35 s
       Pressure Iterations:      2
       Maximum Velocity Error:  0.46E-01 on Mesh   1 at (   6  10   6)
       Maximum Pressure Error:  0.10E+02 on Mesh   1 at (  13  11   1)
       ---------------------------------------------------------------
       Max CFL number:  0.66E+00 at (   7,  10,   7)
       Max divergence:  0.22E+01 at (  13,  11,   1)
       Min divergence: -0.16E-01 at (   7,  10,   5)
       Max VN number:   0.13E-01 at (  12,  11,   2)
       Total Heat Release Rate:             27.407 kW
       Radiation Loss to Boundaries:        -0.662 kW
 
       Time Step       3   February 19, 2020  19:33:22
       Step Size:    0.177E+00 s, Total Time:       0.53 s
       Pressure Iterations:      2
       Maximum Velocity Error:  0.42E-01 on Mesh   1 at (   6  10   6)
       Maximum Pressure Error:  0.70E+01 on Mesh   1 at (  12  10   1)
       ---------------------------------------------------------------
       Max CFL number:  0.53E+00 at (  12,  11,   1)
       Max divergence:  0.26E+01 at (  13,  10,   1)
       Min divergence: -0.13E-01 at (   7,  10,   5)
       Max VN number:   0.37E+00 at (   5,  10,   3)
       Total Heat Release Rate:             49.910 kW
       Radiation Loss to Boundaries:       -11.433 kW
 
       Time Step       4   February 19, 2020  19:33:22
       Step Size:    0.177E+00 s, Total Time:       0.71 s
       Pressure Iterations:      1
       Maximum Velocity Error:  0.58E-01 on Mesh   1 at (   6  10   6)
       Maximum Pressure Error:  0.74E+02 on Mesh   1 at (  13  11   1)
       ---------------------------------------------------------------
       Max CFL number:  0.84E+00 at (  13,  11,   1)
       Max divergence:  0.50E+00 at (  12,  11,   1)
       Min divergence: -0.23E+00 at (  12,  11,   2)
       Max VN number:   0.21E+00 at (   5,  10,   3)
       Total Heat Release Rate:             71.871 kW
       Radiation Loss to Boundaries:       -64.614 kW
 
       Time Step       5   February 19, 2020  19:33:22
       Step Size:    0.177E+00 s, Total Time:       0.88 s
       Pressure Iterations:      2
       Maximum Velocity Error:  0.49E-01 on Mesh   1 at (   6  10   2)
       Maximum Pressure Error:  0.67E+02 on Mesh   1 at (  12  11   1)
       ---------------------------------------------------------------
       Max CFL number:  0.10E+01 at (  12,  11,   1)
       Max divergence:  0.68E+01 at (  13,  10,   1)
       Min divergence: -0.64E+00 at (  12,  10,   2)
       Max VN number:   0.27E+00 at (  12,  11,   2)
       Total Heat Release Rate:             95.505 kW
       Radiation Loss to Boundaries:       -14.030 kW
 
       Time Step       6   February 19, 2020  19:33:22
       Step Size:    0.643E-01 s, Total Time:       0.95 s
       Pressure Iterations:      3
       Maximum Velocity Error:  0.81E-01 on Mesh   1 at (   6  10   2)
       Maximum Pressure Error:  0.78E+02 on Mesh   1 at (  13  11   1)
       ---------------------------------------------------------------
       Max CFL number:  0.86E+00 at (  13,  11,   1)
       Max divergence:  0.47E+01 at (  13,  10,   1)
       Min divergence: -0.13E+01 at (  13,  10,   2)
       Max VN number:   0.17E+00 at (  13,  10,   2)
       Total Heat Release Rate:            124.354 kW
       Radiation Loss to Boundaries:       -67.738 kW
 
       Time Step       7   February 19, 2020  19:33:22
       Step Size:    0.643E-01 s, Total Time:       1.01 s
       Pressure Iterations:      4
       Maximum Velocity Error:  0.71E-01 on Mesh   1 at (   6  11   2)
       Maximum Pressure Error:  0.14E+02 on Mesh   1 at (  13  10   1)
       ---------------------------------------------------------------
       Max CFL number:  0.82E+00 at (  13,  10,   1)
       Max divergence:  0.50E+01 at (  12,  11,   1)
       Min divergence: -0.16E+01 at (  13,  10,   2)
       Max VN number:   0.44E+00 at (   7,  11,   7)
       Total Heat Release Rate:            133.658 kW
       Radiation Loss to Boundaries:       -71.606 kW
 
       Time Step       8   February 19, 2020  19:33:22
       Step Size:    0.643E-01 s, Total Time:       1.08 s
       Pressure Iterations:      4
       Maximum Velocity Error:  0.62E-01 on Mesh   1 at (   6  11   2)
       Maximum Pressure Error:  0.15E+03 on Mesh   1 at (  13  10   1)
       ---------------------------------------------------------------
       Max CFL number:  0.89E+00 at (  13,  11,   1)
       Max divergence:  0.67E+01 at (  13,  10,   1)
       Min divergence: -0.48E+00 at (  12,  11,   2)
       Max VN number:   0.25E+00 at (  12,  11,   1)
       Total Heat Release Rate:            160.359 kW
       Radiation Loss to Boundaries:       -64.580 kW
 
       Time Step       9   February 19, 2020  19:33:22
       Step Size:    0.539E-01 s, Total Time:       1.13 s
       Pressure Iterations:      3
       Maximum Velocity Error:  0.82E-01 on Mesh   1 at (   6  11   3)
       Maximum Pressure Error:  0.23E+03 on Mesh   1 at (  13  10   1)
       ---------------------------------------------------------------
       Max CFL number:  0.90E+00 at (  13,  10,   1)
       Max divergence:  0.36E+01 at (  12,  11,   1)
       Min divergence: -0.11E+01 at (  13,  10,   3)
       Max VN number:   0.35E+00 at (   7,  11,   7)
       Total Heat Release Rate:            154.987 kW
       Radiation Loss to Boundaries:       -93.577 kW
 
       Time Step      10   February 19, 2020  19:33:22
       Step Size:    0.539E-01 s, Total Time:       1.18 s
       Pressure Iterations:      2
       Maximum Velocity Error:  0.82E-01 on Mesh   1 at (   6  10   6)
       Maximum Pressure Error:  0.22E+03 on Mesh   1 at (  13  10   1)
       ---------------------------------------------------------------
       Max CFL number:  0.75E+00 at (  13,  10,   3)
       Max divergence:  0.68E+01 at (  13,  10,   1)
       Min divergence: -0.11E+01 at (  13,  10,   3)
       Max VN number:   0.27E+00 at (  13,  10,   2)
       Total Heat Release Rate:            168.270 kW
       Radiation Loss to Boundaries:       -50.426 kW
 
       Time Step      20   February 19, 2020  19:33:23
       Step Size:    0.366E-01 s, Total Time:       1.63 s
       Pressure Iterations:      1
       Maximum Velocity Error:  0.22E-01 on Mesh   1 at (  13  10  11)
       Maximum Pressure Error:  0.27E+02 on Mesh   1 at (  13  10   1)
       ---------------------------------------------------------------
       Max CFL number:  0.88E+00 at (  12,  10,   7)
       Max divergence:  0.53E+01 at (  12,  10,   1)
       Min divergence: -0.44E+00 at (  13,  10,   3)
       Max VN number:   0.29E+00 at (  13,  10,   6)
       Total Heat Release Rate:            144.885 kW
       Radiation Loss to Boundaries:       -39.080 kW
 
       Time Step      30   February 19, 2020  19:33:23
       Step Size:    0.366E-01 s, Total Time:       2.00 s
       Pressure Iterations:      1
       Maximum Velocity Error:  0.68E-01 on Mesh   1 at (  12  11  11)
       Maximum Pressure Error:  0.76E+01 on Mesh   1 at (  13   9  10)
       ---------------------------------------------------------------
       Max CFL number:  0.84E+00 at (  12,  10,   6)
       Max divergence:  0.51E+01 at (  13,  10,   1)
       Min divergence: -0.56E+00 at (  13,  10,   9)
       Max VN number:   0.69E+00 at (  12,  10,  10)
       Total Heat Release Rate:            150.118 kW
       Radiation Loss to Boundaries:       -41.068 kW
 
       Time Step      40   February 19, 2020  19:33:23
       Step Size:    0.403E-01 s, Total Time:       2.37 s
       Pressure Iterations:      1
       Maximum Velocity Error:  0.48E-01 on Mesh   1 at (  12  11  11)
       Maximum Pressure Error:  0.35E+01 on Mesh   1 at (  12  11   7)
       ---------------------------------------------------------------
       Max CFL number:  0.87E+00 at (  12,  11,   5)
       Max divergence:  0.53E+01 at (  13,  10,   1)
       Min divergence: -0.78E+00 at (  12,  11,   4)
       Max VN number:   0.61E+00 at (  12,  10,  10)
       Total Heat Release Rate:            156.283 kW
       Radiation Loss to Boundaries:       -41.686 kW
 
       Time Step      50   February 19, 2020  19:33:24
       Step Size:    0.403E-01 s, Total Time:       2.78 s
       Pressure Iterations:      1
       Maximum Velocity Error:  0.17E-01 on Mesh   1 at (   9   7  11)
       Maximum Pressure Error:  0.30E+01 on Mesh   1 at (   8   6  10)
       ---------------------------------------------------------------
       Max CFL number:  0.83E+00 at (  12,  11,   7)
       Max divergence:  0.55E+01 at (  13,  10,   1)
       Min divergence: -0.86E+00 at (  12,  11,   4)
       Max VN number:   0.62E+00 at (  12,  11,  10)
       Total Heat Release Rate:            169.547 kW
       Radiation Loss to Boundaries:       -47.001 kW
 
       Time Step      60   February 19, 2020  19:33:24
       Step Size:    0.403E-01 s, Total Time:       3.18 s
       Pressure Iterations:      1
       Maximum Velocity Error:  0.22E-01 on Mesh   1 at (  12  11  11)
       Maximum Pressure Error:  0.49E+01 on Mesh   1 at (  12  11  10)
       ---------------------------------------------------------------
       Max CFL number:  0.94E+00 at (  12,  11,   7)
       Max divergence:  0.50E+01 at (  12,  11,   1)
       Min divergence: -0.90E+00 at (  12,  11,   4)
       Max VN number:   0.65E+00 at (  12,  11,  10)
       Total Heat Release Rate:            158.529 kW
       Radiation Loss to Boundaries:       -39.193 kW
 
       Time Step      70   February 19, 2020  19:33:24
       Step Size:    0.403E-01 s, Total Time:       3.58 s
       Pressure Iterations:      1
       Maximum Velocity Error:  0.11E-01 on Mesh   1 at (  13  10  11)
       Maximum Pressure Error:  0.27E+01 on Mesh   1 at (  12  11   2)
       ---------------------------------------------------------------
       Max CFL number:  0.92E+00 at (  12,  11,   7)
       Max divergence:  0.59E+01 at (  12,  11,   1)
       Min divergence: -0.80E+00 at (  12,  11,   6)
       Max VN number:   0.61E+00 at (  12,  11,  10)
       Total Heat Release Rate:            164.574 kW
       Radiation Loss to Boundaries:       -43.030 kW
 
       Time Step      80   February 19, 2020  19:33:25
       Step Size:    0.403E-01 s, Total Time:       3.98 s
       Pressure Iterations:      1
       Maximum Velocity Error:  0.13E-01 on Mesh   1 at (  12  11  11)
       Maximum Pressure Error:  0.56E+01 on Mesh   1 at (  13  11   1)
       ---------------------------------------------------------------
       Max CFL number:  0.89E+00 at (  12,  11,   7)
       Max divergence:  0.55E+01 at (  13,  10,   1)
       Min divergence: -0.73E+00 at (  13,  10,   4)
       Max VN number:   0.62E+00 at (  12,  11,  10)
       Total Heat Release Rate:            157.325 kW
       Radiation Loss to Boundaries:       -40.258 kW
 
       Time Step      90   February 19, 2020  19:33:25
       Step Size:    0.403E-01 s, Total Time:       4.39 s
       Pressure Iterations:      1
       Maximum Velocity Error:  0.11E-01 on Mesh   1 at (  12  10  11)
       Maximum Pressure Error:  0.35E+01 on Mesh   1 at (  13  10   1)
       ---------------------------------------------------------------
       Max CFL number:  0.84E+00 at (  12,  10,   6)
       Max divergence:  0.57E+01 at (  12,  10,   1)
       Min divergence: -0.74E+00 at (  12,  10,   4)
       Max VN number:   0.58E+00 at (  13,  10,  10)
       Total Heat Release Rate:            159.979 kW
       Radiation Loss to Boundaries:       -42.318 kW
 
       Time Step     100   February 19, 2020  19:33:25
       Step Size:    0.403E-01 s, Total Time:       4.79 s
       Pressure Iterations:      1
       Maximum Velocity Error:  0.89E-02 on Mesh   1 at (  13  10  11)
       Maximum Pressure Error:  0.26E+01 on Mesh   1 at (  12  10   1)
       ---------------------------------------------------------------
       Max CFL number:  0.87E+00 at (  12,  10,   7)
       Max divergence:  0.59E+01 at (  12,  10,   1)
       Min divergence: -0.72E+00 at (  12,  10,   5)
       Max VN number:   0.60E+00 at (  12,  10,  10)
       Total Heat Release Rate:            161.963 kW
       Radiation Loss to Boundaries:       -43.087 kW
 
       Time Step     200   February 19, 2020  19:33:29
       Step Size:    0.403E-01 s, Total Time:       8.82 s
       Pressure Iterations:      1
       Maximum Velocity Error:  0.23E-01 on Mesh   1 at (  12   9  11)
       Maximum Pressure Error:  0.34E+01 on Mesh   1 at (  13  10   1)
       ---------------------------------------------------------------
       Max CFL number:  0.85E+00 at (  12,  10,   7)
       Max divergence:  0.50E+01 at (  13,  11,   1)
       Min divergence: -0.88E+00 at (  12,  10,   4)
       Max VN number:   0.55E+00 at (  12,  10,  10)
       Total Heat Release Rate:            159.470 kW
       Radiation Loss to Boundaries:       -43.758 kW
 
       Time Step     300   February 19, 2020  19:33:32
       Step Size:    0.403E-01 s, Total Time:      12.84 s
       Pressure Iterations:      1
       Maximum Velocity Error:  0.31E-01 on Mesh   1 at (  10  10  11)
       Maximum Pressure Error:  0.59E+01 on Mesh   1 at (  12  11   1)
       ---------------------------------------------------------------
       Max CFL number:  0.95E+00 at (  12,  10,   8)
       Max divergence:  0.50E+01 at (  12,  10,   1)
       Min divergence: -0.14E+01 at (  12,  10,   4)
       Max VN number:   0.57E+00 at (  12,  10,  10)
       Total Heat Release Rate:            160.955 kW
       Radiation Loss to Boundaries:       -51.627 kW
 
       Time Step     400   February 19, 2020  19:33:36
       Step Size:    0.412E-01 s, Total Time:      17.02 s
       Pressure Iterations:      1
       Maximum Velocity Error:  0.76E-01 on Mesh   1 at (   6  11   3)
       Maximum Pressure Error:  0.49E+02 on Mesh   1 at (  12  10   1)
       ---------------------------------------------------------------
       Max CFL number:  0.96E+00 at (  11,  10,   5)
       Max divergence:  0.47E+01 at (  12,  11,   1)
       Min divergence: -0.76E+00 at (  11,  10,   5)
       Max VN number:   0.41E+00 at (  11,  11,  10)
       Total Heat Release Rate:            128.606 kW
       Radiation Loss to Boundaries:       -43.417 kW
 
       Time Step     500   February 19, 2020  19:33:39
       Step Size:    0.452E-01 s, Total Time:      21.78 s
       Pressure Iterations:      2
       Maximum Velocity Error:  0.37E-01 on Mesh   1 at (   6  11   7)
       Maximum Pressure Error:  0.25E+02 on Mesh   1 at (  12   9   1)
       ---------------------------------------------------------------
       Max CFL number:  0.81E+00 at (  11,  10,   7)
       Max divergence:  0.54E+01 at (  12,  11,   1)
       Min divergence: -0.67E+00 at (  11,  11,   2)
       Max VN number:   0.36E+00 at (   7,  11,  10)
       Total Heat Release Rate:            159.074 kW
       Radiation Loss to Boundaries:       -58.483 kW
 
       Time Step     600   February 19, 2020  19:33:43
       Step Size:    0.438E-01 s, Total Time:      26.64 s
       Pressure Iterations:      2
       Maximum Velocity Error:  0.26E-01 on Mesh   1 at (   8  11  11)
       Maximum Pressure Error:  0.93E+02 on Mesh   1 at (  10  10   1)
       ---------------------------------------------------------------
       Max CFL number:  0.88E+00 at (   8,  10,   8)
       Max divergence:  0.40E+01 at (  12,  11,   1)
       Min divergence: -0.17E+01 at (  10,  10,   2)
       Max VN number:   0.51E+00 at (   8,  11,  10)
       Total Heat Release Rate:            139.786 kW
       Radiation Loss to Boundaries:       -68.338 kW
 
       Time Step     700   February 19, 2020  19:33:47
       Step Size:    0.518E-01 s, Total Time:      31.49 s
       Pressure Iterations:      1
       Maximum Velocity Error:  0.79E-01 on Mesh   1 at (   6  11   2)
       Maximum Pressure Error:  0.29E+03 on Mesh   1 at (  12  10   1)
       ---------------------------------------------------------------
       Max CFL number:  0.84E+00 at (  12,  11,   1)
       Max divergence:  0.99E+01 at (  12,  10,   1)
       Min divergence: -0.53E+00 at (  12,  11,   3)
       Max VN number:   0.37E+00 at (  10,   9,  10)
       Total Heat Release Rate:            176.490 kW
       Radiation Loss to Boundaries:       -71.807 kW
 
       Time Step     800   February 19, 2020  19:33:50
       Step Size:    0.423E-01 s, Total Time:      36.06 s
       Pressure Iterations:      2
       Maximum Velocity Error:  0.25E-01 on Mesh   1 at (  11   9  11)
       Maximum Pressure Error:  0.48E+02 on Mesh   1 at (  11  11   1)
       ---------------------------------------------------------------
       Max CFL number:  0.88E+00 at (  11,   9,   9)
       Max divergence:  0.45E+01 at (  12,  11,   1)
       Min divergence: -0.89E+00 at (  12,  10,   4)
       Max VN number:   0.49E+00 at (  10,   9,  10)
       Total Heat Release Rate:            162.140 kW
       Radiation Loss to Boundaries:       -88.359 kW
 
       Time Step     900   February 19, 2020  19:33:54
       Step Size:    0.423E-01 s, Total Time:      40.83 s
       Pressure Iterations:      2
       Maximum Velocity Error:  0.63E-01 on Mesh   1 at (   6  11   3)
       Maximum Pressure Error:  0.31E+03 on Mesh   1 at (  12   9   1)
       ---------------------------------------------------------------
       Max CFL number:  0.90E+00 at (  11,   9,   7)
       Max divergence:  0.49E+01 at (  13,  11,   1)
       Min divergence: -0.49E+00 at (  12,   9,   4)
       Max VN number:   0.48E+00 at (  12,   7,  10)
       Total Heat Release Rate:            172.607 kW
       Radiation Loss to Boundaries:       -91.505 kW
 
       Time Step    1000   February 19, 2020  19:33:57
       Step Size:    0.582E-01 s, Total Time:      46.08 s
       Pressure Iterations:      1
       Maximum Velocity Error:  0.81E-01 on Mesh   1 at (  10   5  10)
       Maximum Pressure Error:  0.47E+02 on Mesh   1 at (   8  11  10)
       ---------------------------------------------------------------
       Max CFL number:  0.90E+00 at (  14,   7,   5)
       Max divergence:  0.40E+01 at (  12,  10,   1)
       Min divergence: -0.10E+01 at (  15,   8,   3)
       Max VN number:   0.51E+00 at (  10,   6,  10)
       Total Heat Release Rate:            154.257 kW
       Radiation Loss to Boundaries:       -87.978 kW
 
       Time Step    1100   February 19, 2020  19:34:01
       Step Size:    0.561E-01 s, Total Time:      51.41 s
       Pressure Iterations:      1
       Maximum Velocity Error:  0.63E-01 on Mesh   1 at (  18  11  11)
       Maximum Pressure Error:  0.17E+02 on Mesh   1 at (  13   9   1)
       ---------------------------------------------------------------
       Max CFL number:  0.98E+00 at (  13,   8,   4)
       Max divergence:  0.53E+01 at (  12,  10,   1)
       Min divergence: -0.50E+00 at (  12,   8,   4)
       Max VN number:   0.46E+00 at (  13,   9,   1)
       Total Heat Release Rate:            157.609 kW
       Radiation Loss to Boundaries:       -89.651 kW
 
       Time Step    1200   February 19, 2020  19:34:05
       Step Size:    0.578E-01 s, Total Time:      56.86 s
       Pressure Iterations:      2
       Maximum Velocity Error:  0.33E-01 on Mesh   1 at (   6  11   3)
       Maximum Pressure Error:  0.27E+03 on Mesh   1 at (  16  10   1)
       ---------------------------------------------------------------
       Max CFL number:  0.91E+00 at (  14,  10,   1)
       Max divergence:  0.40E+01 at (  13,  11,   1)
       Min divergence: -0.20E+01 at (  16,  10,   1)
       Max VN number:   0.43E+00 at (  19,   9,   8)
       Total Heat Release Rate:            163.099 kW
       Radiation Loss to Boundaries:       -98.197 kW
 
       Time Step    1300   February 19, 2020  19:34:08
       Step Size:    0.588E-01 s, Total Time:      62.17 s
       Pressure Iterations:      1
       Maximum Velocity Error:  0.89E-01 on Mesh   1 at (  18  13  11)
       Maximum Pressure Error:  0.24E+03 on Mesh   1 at (  18  11   1)
       ---------------------------------------------------------------
       Max CFL number:  0.80E+00 at (   9,  12,   9)
       Max divergence:  0.35E+01 at (  13,  10,   1)
       Min divergence: -0.76E+00 at (  18,  11,   2)
       Max VN number:   0.55E+00 at (  18,  13,  10)
       Total Heat Release Rate:            163.475 kW
       Radiation Loss to Boundaries:       -95.091 kW
 
       Time Step    1400   February 19, 2020  19:34:12
       Step Size:    0.558E-01 s, Total Time:      67.30 s
       Pressure Iterations:      1
       Maximum Velocity Error:  0.88E-01 on Mesh   1 at (   6  10   7)
       Maximum Pressure Error:  0.50E+02 on Mesh   1 at (  17  12   1)
       ---------------------------------------------------------------
       Max CFL number:  0.87E+00 at (  13,  11,   1)
       Max divergence:  0.44E+01 at (  13,  11,   1)
       Min divergence: -0.75E+00 at (  16,  11,   1)
       Max VN number:   0.51E+00 at (  18,  10,  10)
       Total Heat Release Rate:            173.416 kW
       Radiation Loss to Boundaries:       -91.229 kW
 
       Time Step    1500   February 19, 2020  19:34:15
       Step Size:    0.563E-01 s, Total Time:      72.70 s
       Pressure Iterations:      2
       Maximum Velocity Error:  0.71E-01 on Mesh   1 at (   6  10   2)
       Maximum Pressure Error:  0.37E+03 on Mesh   1 at (  14   9   1)
       ---------------------------------------------------------------
       Max CFL number:  0.84E+00 at (  16,   9,   9)
       Max divergence:  0.33E+01 at (  14,  10,   1)
       Min divergence: -0.15E+01 at (  14,   9,   1)
       Max VN number:   0.51E+00 at (  16,   8,  10)
       Total Heat Release Rate:            163.675 kW
       Radiation Loss to Boundaries:       -94.587 kW
 
       Time Step    1600   February 19, 2020  19:34:19
       Step Size:    0.547E-01 s, Total Time:      78.08 s
       Pressure Iterations:      2
       Maximum Velocity Error:  0.48E-01 on Mesh   1 at (   6  10   3)
       Maximum Pressure Error:  0.51E+02 on Mesh   1 at (  15  11   1)
       ---------------------------------------------------------------
       Max CFL number:  0.81E+00 at (  19,  14,   8)
       Max divergence:  0.38E+01 at (  13,  10,   1)
       Min divergence: -0.52E+00 at (  16,  10,   1)
       Max VN number:   0.51E+00 at (  18,  11,  10)
       Total Heat Release Rate:            145.345 kW
       Radiation Loss to Boundaries:       -84.866 kW
 
       Time Step    1700   February 19, 2020  19:34:23
       Step Size:    0.609E-01 s, Total Time:      83.60 s
       Pressure Iterations:      2
       Maximum Velocity Error:  0.31E-01 on Mesh   1 at (   6  10   4)
       Maximum Pressure Error:  0.30E+03 on Mesh   1 at (  13  10   1)
       ---------------------------------------------------------------
       Max CFL number:  0.89E+00 at (  18,  12,   7)
       Max divergence:  0.73E+01 at (  16,  11,   1)
       Min divergence: -0.67E+00 at (  13,  10,   1)
       Max VN number:   0.42E+00 at (  19,   6,  10)
       Total Heat Release Rate:            139.599 kW
       Radiation Loss to Boundaries:       -83.901 kW
 
       Time Step    1800   February 19, 2020  19:34:26
       Step Size:    0.634E-01 s, Total Time:      89.43 s
       Pressure Iterations:      3
       Maximum Velocity Error:  0.52E-01 on Mesh   1 at (   6  10   2)
       Maximum Pressure Error:  0.27E+03 on Mesh   1 at (  13  10   1)
       ---------------------------------------------------------------
       Max CFL number:  0.91E+00 at (  13,  10,   1)
       Max divergence:  0.57E+01 at (  13,  11,   1)
       Min divergence: -0.66E+00 at (  13,  10,   1)
       Max VN number:   0.46E+00 at (   9,  10,   1)
       Total Heat Release Rate:            105.694 kW
       Radiation Loss to Boundaries:       -61.175 kW
 
       Time Step    1900   February 19, 2020  19:34:30
       Step Size:    0.670E-01 s, Total Time:      95.51 s
       Pressure Iterations:      3
       Maximum Velocity Error:  0.60E-01 on Mesh   1 at (   6  10   2)
       Maximum Pressure Error:  0.13E+03 on Mesh   1 at (  13  10   1)
       ---------------------------------------------------------------
       Max CFL number:  0.84E+00 at (  10,   6,  10)
       Max divergence:  0.80E+01 at (  13,  10,   1)
       Min divergence: -0.25E+00 at (  18,  10,   1)
       Max VN number:   0.50E+00 at (  18,   8,  10)
       Total Heat Release Rate:            133.404 kW
       Radiation Loss to Boundaries:       -56.436 kW
 
       Time Step    2000   February 19, 2020  19:34:34
       Step Size:    0.695E-01 s, Total Time:     101.50 s
       Pressure Iterations:      3
       Maximum Velocity Error:  0.61E-01 on Mesh   1 at (   6  10   3)
       Maximum Pressure Error:  0.14E+03 on Mesh   1 at (  13  10   1)
       ---------------------------------------------------------------
       Max CFL number:  0.79E+00 at (  19,  11,   8)
       Max divergence:  0.64E+00 at (  21,  11,   1)
       Min divergence: -0.52E+00 at (  15,   9,   1)
       Max VN number:   0.41E+00 at (  19,  13,  10)
       Total Heat Release Rate:             86.543 kW
       Radiation Loss to Boundaries:       -55.684 kW
 
       Time Step    2100   February 19, 2020  19:34:38
       Step Size:    0.676E-01 s, Total Time:     108.15 s
       Pressure Iterations:      3
       Maximum Velocity Error:  0.50E-01 on Mesh   1 at (   6  10   2)
       Maximum Pressure Error:  0.32E+02 on Mesh   1 at (  17   9   1)
       ---------------------------------------------------------------
       Max CFL number:  0.89E+00 at (  17,   9,   6)
       Max divergence:  0.14E+01 at (  17,   9,   1)
       Min divergence: -0.27E+00 at (  17,   9,   4)
       Max VN number:   0.50E+00 at (  18,  10,  10)
       Total Heat Release Rate:             93.712 kW
       Radiation Loss to Boundaries:       -51.767 kW
 
       Time Step    2200   February 19, 2020  19:34:42
       Step Size:    0.659E-01 s, Total Time:     114.28 s
       Pressure Iterations:      3
       Maximum Velocity Error:  0.66E-01 on Mesh   1 at (   6  10   3)
       Maximum Pressure Error:  0.47E+02 on Mesh   1 at (  13  10   1)
       ---------------------------------------------------------------
       Max CFL number:  0.88E+00 at (  13,  15,   9)
       Max divergence:  0.27E+01 at (  12,  11,   1)
       Min divergence: -0.68E+00 at (  13,  10,   1)
       Max VN number:   0.41E+00 at (  19,  14,  10)
       Total Heat Release Rate:            118.959 kW
       Radiation Loss to Boundaries:       -65.152 kW
 
       Time Step    2300   February 19, 2020  19:34:45
       Step Size:    0.759E-01 s, Total Time:     120.08 s
       Pressure Iterations:      2
       Maximum Velocity Error:  0.60E-01 on Mesh   1 at (   6  10   2)
       Maximum Pressure Error:  0.82E+01 on Mesh   1 at (   7  10   6)
       ---------------------------------------------------------------
       Max CFL number:  0.87E+00 at (  21,  11,  15)
       Max divergence:  0.30E+01 at (  14,   9,   3)
       Min divergence: -0.22E+00 at (   8,  11,   4)
       Max VN number:   0.36E+00 at (   7,  11,   1)
       Total Heat Release Rate:            141.530 kW
       Radiation Loss to Boundaries:       -57.618 kW
 
       Time Step    2400   February 19, 2020  19:34:49
       Step Size:    0.522E-01 s, Total Time:     125.71 s
       Pressure Iterations:      2
       Maximum Velocity Error:  0.59E-01 on Mesh   1 at (   6  10   3)
       Maximum Pressure Error:  0.48E+02 on Mesh   1 at (  12  11   1)
       ---------------------------------------------------------------
       Max CFL number:  0.84E+00 at (  16,  10,   8)
       Max divergence:  0.12E+01 at (  21,  10,   1)
       Min divergence: -0.44E+00 at (  12,  11,   1)
       Max VN number:   0.49E+00 at (  16,  10,  10)
       Total Heat Release Rate:            151.573 kW
       Radiation Loss to Boundaries:       -61.478 kW
 
       Time Step    2500   February 19, 2020  19:34:53
       Step Size:    0.661E-01 s, Total Time:     131.32 s
       Pressure Iterations:      2
       Maximum Velocity Error:  0.35E-01 on Mesh   1 at (   6  11   7)
       Maximum Pressure Error:  0.11E+02 on Mesh   1 at (   7  12   1)
       ---------------------------------------------------------------
       Max CFL number:  0.92E+00 at (  21,  10,  12)
       Max divergence:  0.15E+01 at (  19,  13,   2)
       Min divergence: -0.28E+00 at (   9,  10,   1)
       Max VN number:   0.40E+00 at (  19,  12,  10)
       Total Heat Release Rate:             99.721 kW
       Radiation Loss to Boundaries:       -53.761 kW
 
       Time Step    2600   February 19, 2020  19:34:56
       Step Size:    0.556E-01 s, Total Time:     136.68 s
       Pressure Iterations:      2
       Maximum Velocity Error:  0.72E-01 on Mesh   1 at (   6  10   3)
       Maximum Pressure Error:  0.71E+02 on Mesh   1 at (  13  11   1)
       ---------------------------------------------------------------
       Max CFL number:  0.83E+00 at (  16,  13,   7)
       Max divergence:  0.86E+00 at (  13,  12,   1)
       Min divergence: -0.65E+00 at (  15,  11,   1)
       Max VN number:   0.63E+00 at (  17,  13,  10)
       Total Heat Release Rate:            103.183 kW
       Radiation Loss to Boundaries:       -52.227 kW
 
       Time Step    2700   February 19, 2020  19:35:00
       Step Size:    0.658E-01 s, Total Time:     142.78 s
       Pressure Iterations:      4
       Maximum Velocity Error:  0.86E-01 on Mesh   1 at (   6  10   3)
       Maximum Pressure Error:  0.58E+02 on Mesh   1 at (  14  10   2)
       ---------------------------------------------------------------
       Max CFL number:  0.89E+00 at (  21,  11,  13)
       Max divergence:  0.15E+01 at (  14,  11,   2)
       Min divergence: -0.58E+00 at (  14,  10,   2)
       Max VN number:   0.51E+00 at (   5,  10,   3)
       Total Heat Release Rate:            100.779 kW
       Radiation Loss to Boundaries:       -52.259 kW
 
       Time Step    2800   February 19, 2020  19:35:04
       Step Size:    0.567E-01 s, Total Time:     148.47 s
       Pressure Iterations:      3
       Maximum Velocity Error:  0.73E-01 on Mesh   1 at (   6  10   3)
       Maximum Pressure Error:  0.76E+02 on Mesh   1 at (  14  12   1)
       ---------------------------------------------------------------
       Max CFL number:  0.82E+00 at (  21,  10,  14)
       Max divergence:  0.58E+01 at (  12,  11,   1)
       Min divergence: -0.39E+00 at (  15,  12,   1)
       Max VN number:   0.34E+00 at (  13,  11,   1)
       Total Heat Release Rate:            223.231 kW
       Radiation Loss to Boundaries:       -81.393 kW
 
       Time Step    2900   February 19, 2020  19:35:08
       Step Size:    0.590E-01 s, Total Time:     154.06 s
       Pressure Iterations:      1
       Maximum Velocity Error:  0.99E-01 on Mesh   1 at (  20  12   1)
       Maximum Pressure Error:  0.11E+02 on Mesh   1 at (  19  12   1)
       ---------------------------------------------------------------
       Max CFL number:  0.88E+00 at (  21,  11,  16)
       Max divergence:  0.15E+01 at (  11,  10,   1)
       Min divergence: -0.26E+00 at (  19,   9,   2)
       Max VN number:   0.43E+00 at (  19,   6,   7)
       Total Heat Release Rate:            116.525 kW
       Radiation Loss to Boundaries:       -57.469 kW
 
       Time Step    3000   February 19, 2020  19:35:11
       Step Size:    0.732E-01 s, Total Time:     159.99 s
       Pressure Iterations:      1
       Maximum Velocity Error:  0.54E-01 on Mesh   1 at (   6  11   2)
       Maximum Pressure Error:  0.66E+01 on Mesh   1 at (  11  12   1)
       ---------------------------------------------------------------
       Max CFL number:  0.84E+00 at (  21,  10,  15)
       Max divergence:  0.94E+00 at (  11,  12,   1)
       Min divergence: -0.15E+00 at (   8,   9,   2)
       Max VN number:   0.60E+00 at (   8,  10,   1)
       Total Heat Release Rate:             79.518 kW
       Radiation Loss to Boundaries:       -47.571 kW
 
       Time Step    3100   February 19, 2020  19:35:15
       Step Size:    0.596E-01 s, Total Time:     165.92 s
       Pressure Iterations:      2
       Maximum Velocity Error:  0.66E-01 on Mesh   1 at (   6  10   3)
       Maximum Pressure Error:  0.32E+03 on Mesh   1 at (  12  12   1)
       ---------------------------------------------------------------
       Max CFL number:  0.93E+00 at (  21,  10,  15)
       Max divergence:  0.25E+01 at (  12,  11,   1)
       Min divergence: -0.29E+00 at (  21,   9,  12)
       Max VN number:   0.39E+00 at (  18,  14,  10)
       Total Heat Release Rate:            135.520 kW
       Radiation Loss to Boundaries:       -62.373 kW
 
       Time Step    3200   February 19, 2020  19:35:19
       Step Size:    0.596E-01 s, Total Time:     171.87 s
       Pressure Iterations:      2
       Maximum Velocity Error:  0.41E-01 on Mesh   1 at (  20   7  10)
       Maximum Pressure Error:  0.23E+02 on Mesh   1 at (  19   6   9)
       ---------------------------------------------------------------
       Max CFL number:  0.85E+00 at (  21,  11,  13)
       Max divergence:  0.10E+01 at (  21,  10,   1)
       Min divergence: -0.46E+00 at (  19,   6,  10)
       Max VN number:   0.36E+00 at (   8,   9,   1)
       Total Heat Release Rate:             61.484 kW
       Radiation Loss to Boundaries:       -40.145 kW
 
       Time Step    3300   February 19, 2020  19:35:23
       Step Size:    0.603E-01 s, Total Time:     177.06 s
       Pressure Iterations:      2
       Maximum Velocity Error:  0.50E-01 on Mesh   1 at (   8  16   1)
       Maximum Pressure Error:  0.89E+02 on Mesh   1 at (   8  15   1)
       ---------------------------------------------------------------
       Max CFL number:  0.86E+00 at (  21,  12,  12)
       Max divergence:  0.36E+01 at (   8,  14,   1)
       Min divergence: -0.45E+00 at (   8,  15,   1)
       Max VN number:   0.34E+00 at (  21,  12,  12)
       Total Heat Release Rate:            102.883 kW
       Radiation Loss to Boundaries:       -55.495 kW
 
       Time Step    3400   February 19, 2020  19:35:26
       Step Size:    0.686E-01 s, Total Time:     182.74 s
       Pressure Iterations:      3
       Maximum Velocity Error:  0.89E-01 on Mesh   1 at (   6  11   2)
       Maximum Pressure Error:  0.71E+02 on Mesh   1 at (  11  11   2)
       ---------------------------------------------------------------
       Max CFL number:  0.90E+00 at (  11,  11,   2)
       Max divergence:  0.17E+02 at (  11,  11,   1)
       Min divergence: -0.29E+00 at (  11,  11,   4)
       Max VN number:   0.45E+00 at (   7,  10,   6)
       Total Heat Release Rate:            240.394 kW
       Radiation Loss to Boundaries:       -83.328 kW
 
       Time Step    3500   February 19, 2020  19:35:30
       Step Size:    0.574E-01 s, Total Time:     188.42 s
       Pressure Iterations:      3
       Maximum Velocity Error:  0.54E-01 on Mesh   1 at (   6  11   3)
       Maximum Pressure Error:  0.94E+02 on Mesh   1 at (  10  10   1)
       ---------------------------------------------------------------
       Max CFL number:  0.89E+00 at (   5,  11,  10)
       Max divergence:  0.29E+01 at (  10,   7,   1)
       Min divergence: -0.89E+00 at (  10,  10,   1)
       Max VN number:   0.35E+00 at (  13,   7,  10)
       Total Heat Release Rate:            166.156 kW
       Radiation Loss to Boundaries:       -74.969 kW
 
       Time Step    3600   February 19, 2020  19:35:34
       Step Size:    0.793E-01 s, Total Time:     195.83 s
       Pressure Iterations:      2
       Maximum Velocity Error:  0.25E-01 on Mesh   1 at (   6  11   7)
       Maximum Pressure Error:  0.40E+02 on Mesh   1 at (  10  11   1)
       ---------------------------------------------------------------
       Max CFL number:  0.87E+00 at (   9,  12,   8)
       Max divergence:  0.98E+00 at (   9,  11,   2)
       Min divergence: -0.50E+00 at (  10,  11,   1)
       Max VN number:   0.39E+00 at (  10,  13,   1)
       Total Heat Release Rate:            109.738 kW
       Radiation Loss to Boundaries:       -61.905 kW
 
       Time Step    3700   February 19, 2020  19:35:38
       Step Size:    0.478E-01 s, Total Time:     202.34 s
       Pressure Iterations:      2
       Maximum Velocity Error:  0.39E-01 on Mesh   1 at (   6  12   7)
       Maximum Pressure Error:  0.42E+02 on Mesh   1 at (   9   6   4)
       ---------------------------------------------------------------
       Max CFL number:  0.99E+00 at (   5,  11,  13)
       Max divergence:  0.31E+01 at (   7,   7,   3)
       Min divergence: -0.82E+00 at (   9,   6,   4)
       Max VN number:   0.55E+00 at (   7,   8,   7)
       Total Heat Release Rate:            136.234 kW
       Radiation Loss to Boundaries:       -74.859 kW
 
       Time Step    3800   February 19, 2020  19:35:41
       Step Size:    0.499E-01 s, Total Time:     208.13 s
       Pressure Iterations:      2
       Maximum Velocity Error:  0.51E-01 on Mesh   1 at (   6  11   1)
       Maximum Pressure Error:  0.54E+02 on Mesh   1 at (  10  11   4)
       ---------------------------------------------------------------
       Max CFL number:  0.83E+00 at (  21,  11,  16)
       Max divergence:  0.31E+01 at (  10,  11,   4)
       Min divergence: -0.23E+00 at (  21,   9,  12)
       Max VN number:   0.31E+00 at (  10,  13,  10)
       Total Heat Release Rate:            159.439 kW
       Radiation Loss to Boundaries:       -70.401 kW
 
       Time Step    3900   February 19, 2020  19:35:45
       Step Size:    0.522E-01 s, Total Time:     214.78 s
       Pressure Iterations:      2
       Maximum Velocity Error:  0.41E-01 on Mesh   1 at (   6  10   3)
       Maximum Pressure Error:  0.17E+02 on Mesh   1 at (   9  11   1)
       ---------------------------------------------------------------
       Max CFL number:  0.85E+00 at (   8,  11,   7)
       Max divergence:  0.23E+01 at (   8,  10,   1)
       Min divergence: -0.40E+00 at (   9,  12,   4)
       Max VN number:   0.49E+00 at (   9,  12,  10)
       Total Heat Release Rate:            142.557 kW
       Radiation Loss to Boundaries:       -70.743 kW
 
       Time Step    4000   February 19, 2020  19:35:49
       Step Size:    0.798E-01 s, Total Time:     221.06 s
       Pressure Iterations:      1
       Maximum Velocity Error:  0.84E-01 on Mesh   1 at (   6  11   7)
       Maximum Pressure Error:  0.16E+02 on Mesh   1 at (   7   8   7)
       ---------------------------------------------------------------
       Max CFL number:  0.84E+00 at (   5,   9,  14)
       Max divergence:  0.11E+01 at (   7,   9,   6)
       Min divergence: -0.28E+00 at (   7,   8,   7)
       Max VN number:   0.44E+00 at (  19,   6,   9)
       Total Heat Release Rate:             83.656 kW
       Radiation Loss to Boundaries:       -60.694 kW
 
       Time Step    4100   February 19, 2020  19:35:53
       Step Size:    0.616E-01 s, Total Time:     227.87 s
       Pressure Iterations:      3
       Maximum Velocity Error:  0.65E-01 on Mesh   1 at (   6  11   3)
       Maximum Pressure Error:  0.46E+02 on Mesh   1 at (   7  10   1)
       ---------------------------------------------------------------
       Max CFL number:  0.89E+00 at (   8,  11,   4)
       Max divergence:  0.45E+01 at (   8,  11,   4)
       Min divergence: -0.60E+00 at (   8,  12,   4)
       Max VN number:   0.48E+00 at (   8,  13,  10)
       Total Heat Release Rate:            138.575 kW
       Radiation Loss to Boundaries:       -64.449 kW
 
       Time Step    4200   February 19, 2020  19:35:57
       Step Size:    0.296E-01 s, Total Time:     233.86 s
       Pressure Iterations:      2
       Maximum Velocity Error:  0.34E-01 on Mesh   1 at (  20  11   1)
       Maximum Pressure Error:  0.65E+02 on Mesh   1 at (  21  11   1)
       ---------------------------------------------------------------
       Max CFL number:  0.92E+00 at (  21,  11,  12)
       Max divergence:  0.21E+01 at (  21,  10,   1)
       Min divergence: -0.74E+00 at (  21,  10,  14)
       Max VN number:   0.34E+00 at (  21,  11,  12)
       Total Heat Release Rate:            143.737 kW
       Radiation Loss to Boundaries:       -69.792 kW
 
       Time Step    4300   February 19, 2020  19:36:00
       Step Size:    0.578E-01 s, Total Time:     239.08 s
       Pressure Iterations:      2
       Maximum Velocity Error:  0.50E-01 on Mesh   1 at (   6  11   5)
       Maximum Pressure Error:  0.27E+02 on Mesh   1 at (   7  11   5)
       ---------------------------------------------------------------
       Max CFL number:  0.83E+00 at (  21,  11,  16)
       Max divergence:  0.31E+01 at (   7,   9,   6)
       Min divergence: -0.30E+00 at (   8,   9,  10)
       Max VN number:   0.34E+00 at (   7,  11,   6)
       Total Heat Release Rate:            131.905 kW
       Radiation Loss to Boundaries:       -62.683 kW
 
       Time Step    4400   February 19, 2020  19:36:04
       Step Size:    0.383E-01 s, Total Time:     245.39 s
       Pressure Iterations:      2
       Maximum Velocity Error:  0.23E-01 on Mesh   1 at (   6  13   3)
       Maximum Pressure Error:  0.39E+02 on Mesh   1 at (   8  11   2)
       ---------------------------------------------------------------
       Max CFL number:  0.86E+00 at (  21,  12,  12)
       Max divergence:  0.31E+01 at (  21,   9,   1)
       Min divergence: -0.84E+00 at (  21,  12,  12)
       Max VN number:   0.36E+00 at (  21,  12,  12)
       Total Heat Release Rate:            225.761 kW
       Radiation Loss to Boundaries:       -75.690 kW
 
       Time Step    4500   February 19, 2020  19:36:08
       Step Size:    0.617E-01 s, Total Time:     250.23 s
       Pressure Iterations:      3
       Maximum Velocity Error:  0.74E-01 on Mesh   1 at (   6  11   3)
       Maximum Pressure Error:  0.24E+02 on Mesh   1 at (   7   9   7)
       ---------------------------------------------------------------
       Max CFL number:  0.84E+00 at (   8,   9,   6)
       Max divergence:  0.43E+01 at (   7,   9,   6)
       Min divergence: -0.58E+00 at (   8,   8,   9)
       Max VN number:   0.54E+00 at (   7,   8,   8)
       Total Heat Release Rate:            162.859 kW
       Radiation Loss to Boundaries:       -71.583 kW
 
       Time Step    4600   February 19, 2020  19:36:12
       Step Size:    0.439E-01 s, Total Time:     255.86 s
       Pressure Iterations:      1
       Maximum Velocity Error:  0.94E-01 on Mesh   1 at (   6  11   3)
       Maximum Pressure Error:  0.15E+02 on Mesh   1 at (   7  11   3)
       ---------------------------------------------------------------
       Max CFL number:  0.93E+00 at (  21,  11,  12)
       Max divergence:  0.30E+01 at (  21,  12,   1)
       Min divergence: -0.58E+00 at (  21,  11,  12)
       Max VN number:   0.33E+00 at (  21,  11,  12)
       Total Heat Release Rate:            185.189 kW
       Radiation Loss to Boundaries:       -71.705 kW
 
       Time Step    4700   February 19, 2020  19:36:15
       Step Size:    0.570E-01 s, Total Time:     260.65 s
       Pressure Iterations:      1
       Maximum Velocity Error:  0.40E-01 on Mesh   1 at (   7  16  10)
       Maximum Pressure Error:  0.15E+02 on Mesh   1 at (   7  15  10)
       ---------------------------------------------------------------
       Max CFL number:  0.85E+00 at (  21,  11,  15)
       Max divergence:  0.16E+01 at (   8,  11,   5)
       Min divergence: -0.20E+00 at (   8,  11,  10)
       Max VN number:   0.38E+00 at (   8,  12,  10)
       Total Heat Release Rate:             77.751 kW
       Radiation Loss to Boundaries:       -46.610 kW
 
       Time Step    4800   February 19, 2020  19:36:19
       Step Size:    0.525E-01 s, Total Time:     266.63 s
       Pressure Iterations:      3
       Maximum Velocity Error:  0.72E-01 on Mesh   1 at (   6  10   3)
       Maximum Pressure Error:  0.80E+02 on Mesh   1 at (   8  10   1)
       ---------------------------------------------------------------
       Max CFL number:  0.92E+00 at (   8,  10,   6)
       Max divergence:  0.53E+01 at (   8,   9,   1)
       Min divergence: -0.84E+00 at (   8,   9,   2)
       Max VN number:   0.58E+00 at (   9,   9,  10)
       Total Heat Release Rate:            213.545 kW
       Radiation Loss to Boundaries:       -70.287 kW
 
       Time Step    4900   February 19, 2020  19:36:23
       Step Size:    0.567E-01 s, Total Time:     271.67 s
       Pressure Iterations:      2
       Maximum Velocity Error:  0.90E-01 on Mesh   1 at (   6  10   3)
       Maximum Pressure Error:  0.62E+02 on Mesh   1 at (   7  11   1)
       ---------------------------------------------------------------
       Max CFL number:  0.83E+00 at (   7,  14,   7)
       Max divergence:  0.47E+01 at (   7,  12,   5)
       Min divergence: -0.33E+00 at (   7,  11,   1)
       Max VN number:   0.48E+00 at (   8,  12,  10)
       Total Heat Release Rate:            148.464 kW
       Radiation Loss to Boundaries:       -62.252 kW
 
       Time Step    5000   February 19, 2020  19:36:26
       Step Size:    0.660E-01 s, Total Time:     277.07 s
       Pressure Iterations:      2
       Maximum Velocity Error:  0.57E-01 on Mesh   1 at (   6  12   5)
       Maximum Pressure Error:  0.35E+02 on Mesh   1 at (   7  12   5)
       ---------------------------------------------------------------
       Max CFL number:  0.88E+00 at (  21,  12,  12)
       Max divergence:  0.20E+01 at (   8,  12,   5)
       Min divergence: -0.23E+00 at (   7,   8,   7)
       Max VN number:   0.48E+00 at (  19,   6,   8)
       Total Heat Release Rate:             84.058 kW
       Radiation Loss to Boundaries:       -54.605 kW
 
       Time Step    5100   February 19, 2020  19:36:31
       Step Size:    0.451E-01 s, Total Time:     281.51 s
       Pressure Iterations:      2
       Maximum Velocity Error:  0.43E-01 on Mesh   1 at (   6  11   4)
       Maximum Pressure Error:  0.11E+02 on Mesh   1 at (   7  11   4)
       ---------------------------------------------------------------
       Max CFL number:  0.88E+00 at (  21,  12,  12)
       Max divergence:  0.11E+01 at (   7,  11,   4)
       Min divergence: -0.47E+00 at (  21,  12,  12)
       Max VN number:   0.36E+00 at (  21,  12,  12)
       Total Heat Release Rate:            110.670 kW
       Radiation Loss to Boundaries:       -59.716 kW
 
       Time Step    5200   February 19, 2020  19:36:34
       Step Size:    0.419E-01 s, Total Time:     286.30 s
       Pressure Iterations:      2
       Maximum Velocity Error:  0.38E-01 on Mesh   1 at (   6  11   6)
       Maximum Pressure Error:  0.31E+02 on Mesh   1 at (   7   9   1)
       ---------------------------------------------------------------
       Max CFL number:  0.84E+00 at (  21,  12,  12)
       Max divergence:  0.14E+01 at (  21,  12,   1)
       Min divergence: -0.55E+00 at (  21,  12,  12)
       Max VN number:   0.34E+00 at (  21,  12,  12)
       Total Heat Release Rate:            136.241 kW
       Radiation Loss to Boundaries:       -64.734 kW
 
       Time Step    5300   February 19, 2020  19:36:38
       Step Size:    0.663E-01 s, Total Time:     292.08 s
       Pressure Iterations:      3
       Maximum Velocity Error:  0.76E-01 on Mesh   1 at (   6  11   3)
       Maximum Pressure Error:  0.25E+02 on Mesh   1 at (   9   9   1)
       ---------------------------------------------------------------
       Max CFL number:  0.89E+00 at (  10,   9,   8)
       Max divergence:  0.20E+01 at (   9,   8,   7)
       Min divergence: -0.41E+00 at (  10,   9,   9)
       Max VN number:   0.44E+00 at (  10,   9,  10)
       Total Heat Release Rate:            152.645 kW
       Radiation Loss to Boundaries:       -61.734 kW
 
       Time Step    5400   February 19, 2020  19:36:42
       Step Size:    0.535E-01 s, Total Time:     298.35 s
       Pressure Iterations:      4
       Maximum Velocity Error:  0.87E-01 on Mesh   1 at (   6  11   2)
       Maximum Pressure Error:  0.19E+03 on Mesh   1 at (   7  10   7)
       ---------------------------------------------------------------
       Max CFL number:  0.59E+00 at (  21,  11,  12)
       Max divergence:  0.23E+01 at (   8,  10,   5)
       Min divergence: -0.51E+00 at (   8,  10,   6)
       Max VN number:   0.43E+00 at (   5,  10,   3)
       Total Heat Release Rate:            103.697 kW
       Radiation Loss to Boundaries:       -55.064 kW
 
       Time Step    5500   February 19, 2020  19:36:46
       Step Size:    0.512E-01 s, Total Time:     304.64 s
       Pressure Iterations:      2
       Maximum Velocity Error:  0.37E-01 on Mesh   1 at (   6  11   7)
       Maximum Pressure Error:  0.35E+02 on Mesh   1 at (   8  10   2)
       ---------------------------------------------------------------
       Max CFL number:  0.93E+00 at (  21,  12,  12)
       Max divergence:  0.31E+01 at (  21,  11,   1)
       Min divergence: -0.59E+00 at (   8,  10,   2)
       Max VN number:   0.37E+00 at (  21,   9,  12)
       Total Heat Release Rate:            220.023 kW
       Radiation Loss to Boundaries:       -77.910 kW
 
       Time Step    5600   February 19, 2020  19:36:49
       Step Size:    0.718E-01 s, Total Time:     310.24 s
       Pressure Iterations:      4
       Maximum Velocity Error:  0.73E-01 on Mesh   1 at (   6  11   2)
       Maximum Pressure Error:  0.15E+03 on Mesh   1 at (   7  11   2)
       ---------------------------------------------------------------
       Max CFL number:  0.87E+00 at (   7,  10,   5)
       Max divergence:  0.40E+01 at (   8,  12,   4)
       Min divergence: -0.25E+00 at (   7,  12,   7)
       Max VN number:   0.44E+00 at (   7,  11,   7)
       Total Heat Release Rate:            100.172 kW
       Radiation Loss to Boundaries:       -57.796 kW
 
       Time Step    5700   February 19, 2020  19:36:53
       Step Size:    0.427E-01 s, Total Time:     315.24 s
       Pressure Iterations:      1
       Maximum Velocity Error:  0.57E-01 on Mesh   1 at (   6  10   1)
       Maximum Pressure Error:  0.12E+03 on Mesh   1 at (   7  10   1)
       ---------------------------------------------------------------
       Max CFL number:  0.83E+00 at (  21,  11,  13)
       Max divergence:  0.18E+01 at (   8,  11,   4)
       Min divergence: -0.47E+00 at (   7,  10,   1)
       Max VN number:   0.32E+00 at (  21,   9,  12)
       Total Heat Release Rate:            156.149 kW
       Radiation Loss to Boundaries:       -67.361 kW
 
       Time Step    5800   February 19, 2020  19:36:57
       Step Size:    0.568E-01 s, Total Time:     320.12 s
       Pressure Iterations:      3
       Maximum Velocity Error:  0.89E-01 on Mesh   1 at (   6  10   2)
       Maximum Pressure Error:  0.43E+02 on Mesh   1 at (   8  10   3)
       ---------------------------------------------------------------
       Max CFL number:  0.81E+00 at (   8,  11,   8)
       Max divergence:  0.36E+01 at (   7,  10,   3)
       Min divergence: -0.62E+00 at (   8,  11,   6)
       Max VN number:   0.48E+00 at (   8,  10,  10)
       Total Heat Release Rate:            116.364 kW
       Radiation Loss to Boundaries:       -52.491 kW
 
       Time Step    5900   February 19, 2020  19:37:00
       Step Size:    0.624E-01 s, Total Time:     326.77 s
       Pressure Iterations:      2
       Maximum Velocity Error:  0.43E-01 on Mesh   1 at (   6  11   2)
       Maximum Pressure Error:  0.34E+02 on Mesh   1 at (   7   8   3)
       ---------------------------------------------------------------
       Max CFL number:  0.89E+00 at (  21,   9,  12)
       Max divergence:  0.18E+01 at (   7,  11,   3)
       Min divergence: -0.51E+00 at (   8,  10,   2)
       Max VN number:   0.39E+00 at (   7,  11,   3)
       Total Heat Release Rate:            149.613 kW
       Radiation Loss to Boundaries:       -65.782 kW
 
       Time Step    6000   February 19, 2020  19:37:04
       Step Size:    0.515E-01 s, Total Time:     333.27 s
       Pressure Iterations:      2
       Maximum Velocity Error:  0.42E-01 on Mesh   1 at (   6  11   6)
       Maximum Pressure Error:  0.32E+03 on Mesh   1 at (   8  10   1)
       ---------------------------------------------------------------
       Max CFL number:  0.99E+00 at (  21,   9,  12)
       Max divergence:  0.76E+01 at (   7,  11,   1)
       Min divergence: -0.49E+00 at (   8,   9,   3)
       Max VN number:   0.40E+00 at (  21,   9,  12)
       Total Heat Release Rate:            225.980 kW
       Radiation Loss to Boundaries:       -76.773 kW
 
       Time Step    6100   February 19, 2020  19:37:08
       Step Size:    0.498E-01 s, Total Time:     337.96 s
       Pressure Iterations:      3
       Maximum Velocity Error:  0.48E-01 on Mesh   1 at (   6  11   3)
       Maximum Pressure Error:  0.16E+03 on Mesh   1 at (   7  11   3)
       ---------------------------------------------------------------
       Max CFL number:  0.85E+00 at (  21,  10,  13)
       Max divergence:  0.27E+01 at (   7,  11,   3)
       Min divergence: -0.28E+00 at (  21,  10,  12)
       Max VN number:   0.32E+00 at (  21,   9,  12)
       Total Heat Release Rate:            163.228 kW
       Radiation Loss to Boundaries:       -65.607 kW
 
       Time Step    6200   February 19, 2020  19:37:11
       Step Size:    0.801E-01 s, Total Time:     343.78 s
       Pressure Iterations:      3
       Maximum Velocity Error:  0.83E-01 on Mesh   1 at (   6  10   3)
       Maximum Pressure Error:  0.19E+02 on Mesh   1 at (   7  10   6)
       ---------------------------------------------------------------
       Max CFL number:  0.81E+00 at (   7,  13,   7)
       Max divergence:  0.30E+01 at (   7,   9,   5)
       Min divergence: -0.24E+00 at (  12,  13,  10)
       Max VN number:   0.59E+00 at (   7,  14,  10)
       Total Heat Release Rate:            114.434 kW
       Radiation Loss to Boundaries:       -49.130 kW
 
       Time Step    6300   February 19, 2020  19:37:15
       Step Size:    0.356E-01 s, Total Time:     348.37 s
       Pressure Iterations:      2
       Maximum Velocity Error:  0.62E-01 on Mesh   1 at (   6  11   6)
       Maximum Pressure Error:  0.14E+02 on Mesh   1 at (   8  11   8)
       ---------------------------------------------------------------
       Max CFL number:  0.91E+00 at (  21,  10,  12)
       Max divergence:  0.43E+01 at (  21,  11,   1)
       Min divergence: -0.78E+00 at (  21,  10,  12)
       Max VN number:   0.36E+00 at (  21,  10,  12)
       Total Heat Release Rate:            238.961 kW
       Radiation Loss to Boundaries:       -83.761 kW
 
       Time Step    6400   February 19, 2020  19:37:19
       Step Size:    0.330E-01 s, Total Time:     352.25 s
       Pressure Iterations:      2
       Maximum Velocity Error:  0.50E-01 on Mesh   1 at (   6  11   1)
       Maximum Pressure Error:  0.72E+02 on Mesh   1 at (   7  13   1)
       ---------------------------------------------------------------
       Max CFL number:  0.92E+00 at (   8,  11,   6)
       Max divergence:  0.34E+01 at (   7,  10,   5)
       Min divergence: -0.87E+00 at (   8,  11,   6)
       Max VN number:   0.27E+00 at (  21,  12,  12)
       Total Heat Release Rate:            206.664 kW
       Radiation Loss to Boundaries:       -79.123 kW
 
       Time Step    6500   February 19, 2020  19:37:22
       Step Size:    0.602E-01 s, Total Time:     356.93 s
       Pressure Iterations:      2
       Maximum Velocity Error:  0.71E-01 on Mesh   1 at (   6  10   4)
       Maximum Pressure Error:  0.39E+02 on Mesh   1 at (   7  10   4)
       ---------------------------------------------------------------
       Max CFL number:  0.91E+00 at (  21,  11,  12)
       Max divergence:  0.58E+01 at (   7,  11,   6)
       Min divergence: -0.35E+00 at (   8,  15,  10)
       Max VN number:   0.42E+00 at (   7,  11,   6)
       Total Heat Release Rate:            190.268 kW
       Radiation Loss to Boundaries:       -71.051 kW
 
       Time Step    6600   February 19, 2020  19:37:26
       Step Size:    0.395E-01 s, Total Time:     362.58 s
       Pressure Iterations:      2
       Maximum Velocity Error:  0.43E-01 on Mesh   1 at (   6  10   2)
       Maximum Pressure Error:  0.11E+02 on Mesh   1 at (   7  10   2)
       ---------------------------------------------------------------
       Max CFL number:  0.80E+00 at (  21,  11,  15)
       Max divergence:  0.25E+01 at (  21,  12,   1)
       Min divergence: -0.42E+00 at (  21,  11,  12)
       Max VN number:   0.30E+00 at (  21,  12,  12)
       Total Heat Release Rate:            149.450 kW
       Radiation Loss to Boundaries:       -56.497 kW
 
       Time Step    6700   February 19, 2020  19:37:30
       Step Size:    0.374E-01 s, Total Time:     366.90 s
       Pressure Iterations:      1
       Maximum Velocity Error:  0.48E-01 on Mesh   1 at (   6  11   6)
       Maximum Pressure Error:  0.18E+02 on Mesh   1 at (   7  15  10)
       ---------------------------------------------------------------
       Max CFL number:  0.80E+00 at (  21,  11,  13)
       Max divergence:  0.32E+01 at (   7,  10,   6)
       Min divergence: -0.48E+00 at (  21,  10,  12)
       Max VN number:   0.28E+00 at (  21,  11,  12)
       Total Heat Release Rate:            146.165 kW
       Radiation Loss to Boundaries:       -63.389 kW
 
       Time Step    6800   February 19, 2020  19:37:34
       Step Size:    0.456E-01 s, Total Time:     373.04 s
       Pressure Iterations:      2
       Maximum Velocity Error:  0.86E-01 on Mesh   1 at (  20   9   1)
       Maximum Pressure Error:  0.87E+02 on Mesh   1 at (  21  10   1)
       ---------------------------------------------------------------
       Max CFL number:  0.89E+00 at (  21,  12,  12)
       Max divergence:  0.50E+01 at (  21,   9,   1)
       Min divergence: -0.74E+00 at (  21,  12,  12)
       Max VN number:   0.35E+00 at (  21,  12,  12)
       Total Heat Release Rate:            295.044 kW
       Radiation Loss to Boundaries:       -92.008 kW
 
       Time Step    6900   February 19, 2020  19:37:37
       Step Size:    0.343E-01 s, Total Time:     376.36 s
       Pressure Iterations:      1
       Maximum Velocity Error:  0.95E-01 on Mesh   1 at (   6   8   1)
       Maximum Pressure Error:  0.46E+02 on Mesh   1 at (   8  11   1)
       ---------------------------------------------------------------
       Max CFL number:  0.85E+00 at (  21,  10,  13)
       Max divergence:  0.20E+01 at (  21,  10,   1)
       Min divergence: -0.71E+00 at (  21,  10,  13)
       Max VN number:   0.35E+00 at (  21,  10,  12)
       Total Heat Release Rate:            164.707 kW
       Radiation Loss to Boundaries:       -73.093 kW
 
       Time Step    7000   February 19, 2020  19:37:41
       Step Size:    0.581E-01 s, Total Time:     380.46 s
       Pressure Iterations:      1
       Maximum Velocity Error:  0.48E-01 on Mesh   1 at (   6  13   6)
       Maximum Pressure Error:  0.82E+01 on Mesh   1 at (   7   9   5)
       ---------------------------------------------------------------
       Max CFL number:  0.85E+00 at (  21,  12,  15)
       Max divergence:  0.12E+01 at (   7,  13,   6)
       Min divergence: -0.22E+00 at (   7,  11,  10)
       Max VN number:   0.34E+00 at (  19,   6,   7)
       Total Heat Release Rate:             72.805 kW
       Radiation Loss to Boundaries:       -44.953 kW
 
       Time Step    7100   February 19, 2020  19:37:45
       Step Size:    0.582E-01 s, Total Time:     385.73 s
       Pressure Iterations:      1
       Maximum Velocity Error:  0.69E-01 on Mesh   1 at (   6  14   6)
       Maximum Pressure Error:  0.32E+02 on Mesh   1 at (   8  10   4)
       ---------------------------------------------------------------
       Max CFL number:  0.86E+00 at (  21,  12,  13)
       Max divergence:  0.17E+01 at (   8,  10,   4)
       Min divergence: -0.29E+00 at (   7,  14,   7)
       Max VN number:   0.36E+00 at (  21,  12,  12)
       Total Heat Release Rate:            128.332 kW
       Radiation Loss to Boundaries:       -63.207 kW
 
       Time Step    7200   February 19, 2020  19:37:49
       Step Size:    0.528E-01 s, Total Time:     392.64 s
       Pressure Iterations:      3
       Maximum Velocity Error:  0.66E-01 on Mesh   1 at (   6  11   2)
       Maximum Pressure Error:  0.72E+02 on Mesh   1 at (   8   9   1)
       ---------------------------------------------------------------
       Max CFL number:  0.92E+00 at (  21,   9,  12)
       Max divergence:  0.17E+01 at (  21,  12,   1)
       Min divergence: -0.58E+00 at (   8,  10,   7)
       Max VN number:   0.51E+00 at (   7,  11,   5)
       Total Heat Release Rate:            141.679 kW
       Radiation Loss to Boundaries:       -63.659 kW
 
       Time Step    7300   February 19, 2020  19:37:52
       Step Size:    0.599E-01 s, Total Time:     398.82 s
       Pressure Iterations:      3
       Maximum Velocity Error:  0.47E-01 on Mesh   1 at (   6  10   6)
       Maximum Pressure Error:  0.15E+03 on Mesh   1 at (   7  11   1)
       ---------------------------------------------------------------
       Max CFL number:  0.90E+00 at (  21,  10,  13)
       Max divergence:  0.25E+01 at (   8,  12,   3)
       Min divergence: -0.28E+00 at (   7,  10,   4)
       Max VN number:   0.36E+00 at (   7,   9,   9)
       Total Heat Release Rate:            135.975 kW
       Radiation Loss to Boundaries:       -64.813 kW
 
       Time Step    7400   February 19, 2020  19:37:56
       Step Size:    0.402E-01 s, Total Time:     403.26 s
       Pressure Iterations:      1
       Maximum Velocity Error:  0.55E-01 on Mesh   1 at (   6  10   4)
       Maximum Pressure Error:  0.17E+02 on Mesh   1 at (   7  10   4)
       ---------------------------------------------------------------
       Max CFL number:  0.81E+00 at (  21,  10,  13)
       Max divergence:  0.13E+01 at (   8,   9,   4)
       Min divergence: -0.39E+00 at (  21,  11,  12)
       Max VN number:   0.31E+00 at (  21,  11,  12)
       Total Heat Release Rate:            103.661 kW
       Radiation Loss to Boundaries:       -47.215 kW
 
       Time Step    7500   February 19, 2020  19:37:59
       Step Size:    0.784E-01 s, Total Time:     409.52 s
       Pressure Iterations:      3
       Maximum Velocity Error:  0.57E-01 on Mesh   1 at (   6  10   3)
       Maximum Pressure Error:  0.11E+02 on Mesh   1 at (   7  11   7)
       ---------------------------------------------------------------
       Max CFL number:  0.87E+00 at (  21,  11,  13)
       Max divergence:  0.18E+01 at (   8,  11,   3)
       Min divergence: -0.32E+00 at (   9,   9,   7)
       Max VN number:   0.62E+00 at (   7,  10,   4)
       Total Heat Release Rate:            119.747 kW
       Radiation Loss to Boundaries:       -58.547 kW
 
       Time Step    7600   February 19, 2020  19:38:03
       Step Size:    0.402E-01 s, Total Time:     414.21 s
       Pressure Iterations:      1
       Maximum Velocity Error:  0.39E-01 on Mesh   1 at (   6  12   3)
       Maximum Pressure Error:  0.24E+02 on Mesh   1 at (   7  11   2)
       ---------------------------------------------------------------
       Max CFL number:  0.87E+00 at (  21,  10,  12)
       Max divergence:  0.38E+01 at (   8,  12,   3)
       Min divergence: -0.51E+00 at (  21,   9,  12)
       Max VN number:   0.33E+00 at (  21,  12,  12)
       Total Heat Release Rate:            238.682 kW
       Radiation Loss to Boundaries:       -75.892 kW
 
       Time Step    7700   February 19, 2020  19:38:07
       Step Size:    0.560E-01 s, Total Time:     418.62 s
       Pressure Iterations:      4
       Maximum Velocity Error:  0.92E-01 on Mesh   1 at (   6  11   3)
       Maximum Pressure Error:  0.86E+02 on Mesh   1 at (   9  12   1)
       ---------------------------------------------------------------
       Max CFL number:  0.87E+00 at (   9,   9,   9)
       Max divergence:  0.45E+01 at (   9,   9,   1)
       Min divergence: -0.78E+00 at (   5,  10,   2)
       Max VN number:   0.37E+00 at (   9,   9,   8)
       Total Heat Release Rate:            240.118 kW
       Radiation Loss to Boundaries:       -83.626 kW
 
       Time Step    7800   February 19, 2020  19:38:11
       Step Size:    0.717E-01 s, Total Time:     424.14 s
       Pressure Iterations:      3
       Maximum Velocity Error:  0.59E-01 on Mesh   1 at (   6  11   3)
       Maximum Pressure Error:  0.21E+02 on Mesh   1 at (   7  11   6)
       ---------------------------------------------------------------
       Max CFL number:  0.93E+00 at (  21,  11,  12)
       Max divergence:  0.30E+01 at (   7,   7,   6)
       Min divergence: -0.37E+00 at (   7,   9,  10)
       Max VN number:   0.52E+00 at (   7,   8,  10)
       Total Heat Release Rate:            132.165 kW
       Radiation Loss to Boundaries:       -59.027 kW
 
       Time Step    7900   February 19, 2020  19:38:14
       Step Size:    0.601E-01 s, Total Time:     429.55 s
       Pressure Iterations:      2
       Maximum Velocity Error:  0.42E-01 on Mesh   1 at (   6  11   3)
       Maximum Pressure Error:  0.15E+02 on Mesh   1 at (   7  13   5)
       ---------------------------------------------------------------
       Max CFL number:  0.86E+00 at (  21,  11,  13)
       Max divergence:  0.25E+01 at (   7,  12,   4)
       Min divergence: -0.48E+00 at (   8,  13,   6)
       Max VN number:   0.33E+00 at (   8,  13,   9)
       Total Heat Release Rate:            149.741 kW
       Radiation Loss to Boundaries:       -61.378 kW
 
       Time Step    8000   February 19, 2020  19:38:18
       Step Size:    0.418E-01 s, Total Time:     434.83 s
       Pressure Iterations:      1
       Maximum Velocity Error:  0.33E-01 on Mesh   1 at (   8   9  11)
       Maximum Pressure Error:  0.12E+02 on Mesh   1 at (   7   9   1)
       ---------------------------------------------------------------
       Max CFL number:  0.92E+00 at (  21,  10,  13)
       Max divergence:  0.38E+01 at (  21,  12,   1)
       Min divergence: -0.62E+00 at (  21,   9,  12)
       Max VN number:   0.36E+00 at (  21,   9,  12)
       Total Heat Release Rate:            238.644 kW
       Radiation Loss to Boundaries:       -88.171 kW
 
       Time Step    8100   February 19, 2020  19:38:22
       Step Size:    0.482E-01 s, Total Time:     439.44 s
       Pressure Iterations:      2
       Maximum Velocity Error:  0.34E-01 on Mesh   1 at (   6  10   3)
       Maximum Pressure Error:  0.14E+02 on Mesh   1 at (   7   7   7)
       ---------------------------------------------------------------
       Max CFL number:  0.83E+00 at (  21,  11,  13)
       Max divergence:  0.33E+01 at (   7,  10,   4)
       Min divergence: -0.38E+00 at (   7,   8,   7)
       Max VN number:   0.43E+00 at (   8,   9,  10)
       Total Heat Release Rate:            191.856 kW
       Radiation Loss to Boundaries:       -73.519 kW
 
       Time Step    8200   February 19, 2020  19:38:25
       Step Size:    0.544E-01 s, Total Time:     444.61 s
       Pressure Iterations:      2
       Maximum Velocity Error:  0.84E-01 on Mesh   1 at (   6  11   3)
       Maximum Pressure Error:  0.43E+02 on Mesh   1 at (   7  10   6)
       ---------------------------------------------------------------
       Max CFL number:  0.84E+00 at (  21,  10,  13)
       Max divergence:  0.20E+01 at (   7,  12,   5)
       Min divergence: -0.27E+00 at (   7,  11,  10)
       Max VN number:   0.30E+00 at (  21,  11,  12)
       Total Heat Release Rate:            110.341 kW
       Radiation Loss to Boundaries:       -55.445 kW
 
       Time Step    8300   February 19, 2020  19:38:29
       Step Size:    0.345E-01 s, Total Time:     449.43 s
       Pressure Iterations:      1
       Maximum Velocity Error:  0.34E-01 on Mesh   1 at (   6   9   1)
       Maximum Pressure Error:  0.61E+02 on Mesh   1 at (   7   9   1)
       ---------------------------------------------------------------
       Max CFL number:  0.81E+00 at (  21,   9,  12)
[...]
 
       Time Step   32700   February 19, 2020  19:53:51
       Step Size:    0.684E-01 s, Total Time:    1667.89 s
       Pressure Iterations:      2
       Maximum Velocity Error:  0.39E-01 on Mesh   1 at (   7  13  11)
       Maximum Pressure Error:  0.21E+02 on Mesh   1 at (   9  11   3)
       ---------------------------------------------------------------
       Max CFL number:  0.95E+00 at (   7,  13,   7)
       Max divergence:  0.28E+01 at (   9,  10,   3)
       Min divergence: -0.66E+00 at (   9,  11,   3)
       Max VN number:   0.47E+00 at (   8,  13,  10)
       Total Heat Release Rate:            157.104 kW
       Radiation Loss to Boundaries:       -67.266 kW
 
       Time Step   32800   February 19, 2020  19:53:55
       Step Size:    0.518E-01 s, Total Time:    1672.81 s
       Pressure Iterations:      2
       Maximum Velocity Error:  0.43E-01 on Mesh   1 at (   6  11   7)
       Maximum Pressure Error:  0.18E+02 on Mesh   1 at (   8  11   2)
       ---------------------------------------------------------------
       Max CFL number:  0.99E+00 at (  21,  10,  12)
       Max divergence:  0.26E+01 at (  21,   9,   1)
       Min divergence: -0.48E+00 at (  21,  12,  12)
       Max VN number:   0.42E+00 at (   7,  11,   2)
       Total Heat Release Rate:            195.593 kW
       Radiation Loss to Boundaries:       -76.376 kW
 
       Time Step   32900   February 19, 2020  19:53:59
       Step Size:    0.527E-01 s, Total Time:    1677.98 s
       Pressure Iterations:      2
       Maximum Velocity Error:  0.22E-01 on Mesh   1 at (   6  12   4)
       Maximum Pressure Error:  0.13E+02 on Mesh   1 at (   7  12   4)
       ---------------------------------------------------------------
       Max CFL number:  0.82E+00 at (  21,  10,  13)
       Max divergence:  0.30E+01 at (   7,  12,   4)
       Min divergence: -0.64E+00 at (   7,  11,   5)
       Max VN number:   0.31E+00 at (  21,  12,  12)
       Total Heat Release Rate:             89.169 kW
       Radiation Loss to Boundaries:       -48.425 kW
 
       Time Step   33000   February 19, 2020  19:54:02
       Step Size:    0.594E-01 s, Total Time:    1683.93 s
       Pressure Iterations:      1
       Maximum Velocity Error:  0.59E-01 on Mesh   1 at (   6  11   7)
       Maximum Pressure Error:  0.10E+02 on Mesh   1 at (   8   9   5)
       ---------------------------------------------------------------
       Max CFL number:  0.82E+00 at (  21,  12,  13)
       Max divergence:  0.15E+01 at (   8,  10,   3)
       Min divergence: -0.34E+00 at (   8,  10,   6)
       Max VN number:   0.41E+00 at (   7,   7,  10)
       Total Heat Release Rate:            100.300 kW
       Radiation Loss to Boundaries:       -52.821 kW
 
       Time Step   33100   February 19, 2020  19:54:06
       Step Size:    0.333E-01 s, Total Time:    1689.61 s
       Pressure Iterations:      3
       Maximum Velocity Error:  0.50E-01 on Mesh   1 at (  20   9   1)
       Maximum Pressure Error:  0.29E+03 on Mesh   1 at (  21   9   1)
       ---------------------------------------------------------------
       Max CFL number:  0.94E+00 at (  21,  11,  12)
       Max divergence:  0.86E+01 at (  21,   9,   1)
       Min divergence: -0.13E+01 at (  21,  11,  12)
       Max VN number:   0.37E+00 at (  21,  11,  12)
       Total Heat Release Rate:            277.333 kW
       Radiation Loss to Boundaries:       -86.574 kW
 
       Time Step   33200   February 19, 2020  19:54:10
       Step Size:    0.488E-01 s, Total Time:    1693.37 s
       Pressure Iterations:      2
       Maximum Velocity Error:  0.39E-01 on Mesh   1 at (   6  11   3)
       Maximum Pressure Error:  0.26E+02 on Mesh   1 at (   7  13   4)
       ---------------------------------------------------------------
       Max CFL number:  0.80E+00 at (  21,  11,  13)
       Max divergence:  0.15E+01 at (   8,  12,   5)
       Min divergence: -0.24E+00 at (  21,  12,  12)
       Max VN number:   0.30E+00 at (  21,  12,  12)
       Total Heat Release Rate:            111.674 kW
       Radiation Loss to Boundaries:       -55.674 kW
 
       Time Step   33300   February 19, 2020  19:54:13
       Step Size:    0.359E-01 s, Total Time:    1699.76 s
       Pressure Iterations:      1
       Maximum Velocity Error:  0.89E-01 on Mesh   1 at (   6  13   7)
       Maximum Pressure Error:  0.21E+02 on Mesh   1 at (   7  13   7)
       ---------------------------------------------------------------
       Max CFL number:  0.91E+00 at (  21,  11,  12)
       Max divergence:  0.52E+01 at (  21,  11,   1)
       Min divergence: -0.96E+00 at (  21,  11,  12)
       Max VN number:   0.34E+00 at (  21,  11,  12)
       Total Heat Release Rate:            289.227 kW
       Radiation Loss to Boundaries:       -93.851 kW
 
       Time Step   33400   February 19, 2020  19:54:17
       Step Size:    0.477E-01 s, Total Time:    1703.90 s
       Pressure Iterations:      2
       Maximum Velocity Error:  0.29E-01 on Mesh   1 at (   6  10   5)
       Maximum Pressure Error:  0.12E+03 on Mesh   1 at (   8  10   1)
       ---------------------------------------------------------------
       Max CFL number:  0.78E+00 at (   7,   9,   7)
       Max divergence:  0.22E+01 at (   9,  10,   8)
       Min divergence: -0.53E+00 at (   8,  10,   1)
       Max VN number:   0.53E+00 at (   7,   9,   8)
       Total Heat Release Rate:            173.283 kW
       Radiation Loss to Boundaries:       -65.033 kW
 
       Time Step   33500   February 19, 2020  19:54:21
       Step Size:    0.577E-01 s, Total Time:    1709.00 s
       Pressure Iterations:      2
       Maximum Velocity Error:  0.71E-01 on Mesh   1 at (   6  10   3)
       Maximum Pressure Error:  0.35E+02 on Mesh   1 at (   7  11   5)
       ---------------------------------------------------------------
       Max CFL number:  0.95E+00 at (  21,  11,  12)
       Max divergence:  0.40E+01 at (   8,  10,   4)
       Min divergence: -0.42E+00 at (   7,   8,  10)
       Max VN number:   0.38E+00 at (  21,  11,  12)
       Total Heat Release Rate:            200.668 kW
       Radiation Loss to Boundaries:       -75.437 kW
 
       Time Step   33600   February 19, 2020  19:54:24
       Step Size:    0.540E-01 s, Total Time:    1714.52 s
       Pressure Iterations:      4
       Maximum Velocity Error:  0.60E-01 on Mesh   1 at (   6  11   3)
       Maximum Pressure Error:  0.11E+03 on Mesh   1 at (   7  10   1)
       ---------------------------------------------------------------
       Max CFL number:  0.83E+00 at (  21,  11,  13)
       Max divergence:  0.36E+01 at (   9,  10,   5)
       Min divergence: -0.58E+00 at (   8,  10,   5)
       Max VN number:   0.35E+00 at (   7,  10,   6)
       Total Heat Release Rate:            141.135 kW
       Radiation Loss to Boundaries:       -53.616 kW
 
       Time Step   33700   February 19, 2020  19:54:28
       Step Size:    0.549E-01 s, Total Time:    1720.15 s
       Pressure Iterations:      2
       Maximum Velocity Error:  0.29E-01 on Mesh   1 at (   6   9   4)
       Maximum Pressure Error:  0.18E+02 on Mesh   1 at (   7   9   5)
       ---------------------------------------------------------------
       Max CFL number:  0.97E+00 at (  21,  11,  13)
       Max divergence:  0.25E+01 at (   7,  10,   6)
       Min divergence: -0.45E+00 at (   8,   8,   6)
       Max VN number:   0.40E+00 at (   8,  13,  10)
       Total Heat Release Rate:            180.157 kW
       Radiation Loss to Boundaries:       -67.949 kW
 
       Time Step   33800   February 19, 2020  19:54:32
       Step Size:    0.597E-01 s, Total Time:    1725.95 s
       Pressure Iterations:      2
       Maximum Velocity Error:  0.26E-01 on Mesh   1 at (   6   9   3)
       Maximum Pressure Error:  0.12E+02 on Mesh   1 at (   7  11   3)
       ---------------------------------------------------------------
       Max CFL number:  0.89E+00 at (  21,  11,  12)
       Max divergence:  0.17E+01 at (   7,  11,   5)
       Min divergence: -0.56E+00 at (   8,  11,   5)
       Max VN number:   0.35E+00 at (  21,  12,  12)
       Total Heat Release Rate:            124.373 kW
       Radiation Loss to Boundaries:       -54.607 kW
 
       Time Step   33900   February 19, 2020  19:54:35
       Step Size:    0.406E-01 s, Total Time:    1731.57 s
       Pressure Iterations:      2
       Maximum Velocity Error:  0.45E-01 on Mesh   1 at (   6  11   4)
       Maximum Pressure Error:  0.40E+02 on Mesh   1 at (   7  11   4)
       ---------------------------------------------------------------
       Max CFL number:  0.83E+00 at (   8,  11,   4)
       Max divergence:  0.26E+01 at (   9,   9,   4)
       Min divergence: -0.91E+00 at (   8,  11,   5)
       Max VN number:   0.26E+00 at (   7,  11,   6)
       Total Heat Release Rate:            156.514 kW
       Radiation Loss to Boundaries:       -60.742 kW
 
       Time Step   34000   February 19, 2020  19:54:39
       Step Size:    0.496E-01 s, Total Time:    1735.93 s
       Pressure Iterations:      3
       Maximum Velocity Error:  0.48E-01 on Mesh   1 at (   6  10   2)
       Maximum Pressure Error:  0.16E+03 on Mesh   1 at (   7  10   2)
       ---------------------------------------------------------------
       Max CFL number:  0.85E+00 at (   7,  11,   5)
       Max divergence:  0.38E+01 at (   7,  11,   5)
       Min divergence: -0.10E+01 at (   7,  10,   2)
       Max VN number:   0.51E+00 at (   8,   8,  10)
       Total Heat Release Rate:            190.229 kW
       Radiation Loss to Boundaries:       -66.494 kW
 
       Time Step   34100   February 19, 2020  19:54:43
       Step Size:    0.418E-01 s, Total Time:    1740.28 s
       Pressure Iterations:      2
       Maximum Velocity Error:  0.40E-01 on Mesh   1 at (  20   9   1)
       Maximum Pressure Error:  0.26E+03 on Mesh   1 at (   8  10   1)
       ---------------------------------------------------------------
       Max CFL number:  0.78E+00 at (   8,  11,   5)
       Max divergence:  0.31E+01 at (  21,   9,   1)
       Min divergence: -0.55E+00 at (   8,  11,   5)
       Max VN number:   0.40E+00 at (  10,   9,  10)
       Total Heat Release Rate:            181.590 kW
       Radiation Loss to Boundaries:       -70.055 kW
 
       Time Step   34200   February 19, 2020  19:54:47
       Step Size:    0.446E-01 s, Total Time:    1744.78 s
       Pressure Iterations:      3
       Maximum Velocity Error:  0.75E-01 on Mesh   1 at (   6  11   3)
       Maximum Pressure Error:  0.10E+03 on Mesh   1 at (   7  10   3)
       ---------------------------------------------------------------
       Max CFL number:  0.97E+00 at (   8,  10,   8)
       Max divergence:  0.24E+01 at (   7,  12,   7)
       Min divergence: -0.58E+00 at (   7,  10,   3)
       Max VN number:   0.46E+00 at (   8,   8,  10)
       Total Heat Release Rate:            136.465 kW
       Radiation Loss to Boundaries:       -61.838 kW
 
       Time Step   34300   February 19, 2020  19:54:51
       Step Size:    0.206E-01 s, Total Time:    1747.07 s
       Pressure Iterations:      7
       Maximum Velocity Error:  0.98E-01 on Mesh   1 at (   6  10   1)
       Maximum Pressure Error:  0.47E+03 on Mesh   1 at (   7  10   6)
       ---------------------------------------------------------------
       Max CFL number:  0.68E+00 at (   7,  10,   6)
       Max divergence:  0.74E+01 at (   7,  10,   6)
       Min divergence: -0.14E+01 at (   5,  10,   2)
       Max VN number:   0.37E+00 at (   7,  11,   6)
       Total Heat Release Rate:            151.599 kW
       Radiation Loss to Boundaries:       -68.657 kW
 
       Time Step   34400   February 19, 2020  19:54:57
       Step Size:    0.194E-01 s, Total Time:    1749.15 s
       Pressure Iterations:      8
       Maximum Velocity Error:  0.87E-01 on Mesh   1 at (   6  11   1)
       Maximum Pressure Error:  0.49E+03 on Mesh   1 at (   7  10   6)
       ---------------------------------------------------------------
       Max CFL number:  0.68E+00 at (   7,  11,   6)
       Max divergence:  0.80E+01 at (   7,  11,   6)
       Min divergence: -0.20E+01 at (   5,  11,   2)
       Max VN number:   0.36E+00 at (   7,  11,   6)
       Total Heat Release Rate:            156.881 kW
       Radiation Loss to Boundaries:       -69.491 kW
 
       Time Step   34500   February 19, 2020  19:55:01
       Step Size:    0.345E-01 s, Total Time:    1753.21 s
       Pressure Iterations:      2
       Maximum Velocity Error:  0.48E-01 on Mesh   1 at (   6  10   3)
       Maximum Pressure Error:  0.22E+02 on Mesh   1 at (   9  10   2)
       ---------------------------------------------------------------
       Max CFL number:  0.86E+00 at (  21,  10,  12)
       Max divergence:  0.47E+01 at (  21,  10,   1)
       Min divergence: -0.70E+00 at (  21,  10,  12)
       Max VN number:   0.31E+00 at (  21,  13,  12)
       Total Heat Release Rate:            302.359 kW
       Radiation Loss to Boundaries:       -99.644 kW
 
       Time Step   34600   February 19, 2020  19:55:04
       Step Size:    0.801E-01 s, Total Time:    1758.23 s
       Pressure Iterations:      3
       Maximum Velocity Error:  0.45E-01 on Mesh   1 at (   6  11   3)
       Maximum Pressure Error:  0.22E+02 on Mesh   1 at (   7  10   3)
       ---------------------------------------------------------------
       Max CFL number:  0.85E+00 at (  21,  11,  12)
       Max divergence:  0.54E+01 at (   8,  10,   3)
       Min divergence: -0.32E+00 at (   8,  11,   6)
       Max VN number:   0.41E+00 at (   8,  10,   5)
       Total Heat Release Rate:            105.717 kW
       Radiation Loss to Boundaries:       -55.392 kW
 
       Time Step   34700   February 19, 2020  19:55:08
       Step Size:    0.461E-01 s, Total Time:    1764.16 s
       Pressure Iterations:      2
       Maximum Velocity Error:  0.54E-01 on Mesh   1 at (   6  11   2)
       Maximum Pressure Error:  0.29E+03 on Mesh   1 at (   9  12   1)
       ---------------------------------------------------------------
       Max CFL number:  0.95E+00 at (  21,  12,  12)
       Max divergence:  0.39E+01 at (  21,   9,   1)
       Min divergence: -0.11E+01 at (   9,  12,   1)
       Max VN number:   0.39E+00 at (  21,   9,  12)
       Total Heat Release Rate:            280.818 kW
       Radiation Loss to Boundaries:      -100.913 kW
 
       Time Step   34800   February 19, 2020  19:55:12
       Step Size:    0.604E-01 s, Total Time:    1768.72 s
       Pressure Iterations:      2
       Maximum Velocity Error:  0.87E-01 on Mesh   1 at (   6  11   2)
       Maximum Pressure Error:  0.21E+02 on Mesh   1 at (   7  10   5)
       ---------------------------------------------------------------
       Max CFL number:  0.82E+00 at (  21,  10,  16)
       Max divergence:  0.27E+01 at (   7,  12,   3)
       Min divergence: -0.31E+00 at (   8,  12,   3)
       Max VN number:   0.32E+00 at (   7,  14,  10)
       Total Heat Release Rate:            123.673 kW
       Radiation Loss to Boundaries:       -58.997 kW
 
       Time Step   34900   February 19, 2020  19:55:16
       Step Size:    0.516E-01 s, Total Time:    1774.79 s
       Pressure Iterations:      4
       Maximum Velocity Error:  0.84E-01 on Mesh   1 at (   6  10   3)
       Maximum Pressure Error:  0.76E+02 on Mesh   1 at (   7  10   6)
       ---------------------------------------------------------------
       Max CFL number:  0.87E+00 at (   7,  11,   6)
       Max divergence:  0.37E+01 at (   7,   9,   6)
       Min divergence: -0.33E+00 at (   7,   9,  10)
       Max VN number:   0.44E+00 at (   7,  10,   7)
       Total Heat Release Rate:             96.695 kW
       Radiation Loss to Boundaries:       -51.487 kW
 
       Time Step   35000   February 19, 2020  19:55:19
       Step Size:    0.430E-01 s, Total Time:    1779.92 s
       Pressure Iterations:      1
       Maximum Velocity Error:  0.38E-01 on Mesh   1 at (   6  10   2)
       Maximum Pressure Error:  0.23E+02 on Mesh   1 at (   8  10   3)
       ---------------------------------------------------------------
       Max CFL number:  0.95E+00 at (  21,  10,  13)
       Max divergence:  0.18E+01 at (  21,  12,   1)
       Min divergence: -0.65E+00 at (   8,  10,   6)
       Max VN number:   0.39E+00 at (   7,  11,   4)
       Total Heat Release Rate:            135.380 kW
       Radiation Loss to Boundaries:       -61.405 kW
 
       Time Step   35100   February 19, 2020  19:55:23
       Step Size:    0.443E-01 s, Total Time:    1785.53 s
       Pressure Iterations:      6
       Maximum Velocity Error:  0.71E-01 on Mesh   1 at (   6  10   3)
       Maximum Pressure Error:  0.16E+03 on Mesh   1 at (   7  10   5)
       ---------------------------------------------------------------
       Max CFL number:  0.81E+00 at (   7,  10,   7)
       Max divergence:  0.19E+01 at (   7,  10,   7)
       Min divergence: -0.62E+00 at (   5,  10,   2)
       Max VN number:   0.48E+00 at (   5,  10,   3)
       Total Heat Release Rate:            139.055 kW
       Radiation Loss to Boundaries:       -61.297 kW
 
       Time Step   35200   February 19, 2020  19:55:27
       Step Size:    0.396E-01 s, Total Time:    1790.63 s
       Pressure Iterations:      1
       Maximum Velocity Error:  0.31E-01 on Mesh   1 at (   6  11   2)
       Maximum Pressure Error:  0.11E+02 on Mesh   1 at (   7  10   1)
       ---------------------------------------------------------------
       Max CFL number:  0.92E+00 at (  21,  11,  12)
       Max divergence:  0.48E+01 at (  21,  11,   1)
       Min divergence: -0.73E+00 at (  21,  11,  12)
       Max VN number:   0.34E+00 at (  21,  11,  12)
       Total Heat Release Rate:            273.454 kW
       Radiation Loss to Boundaries:       -99.742 kW
 
       Time Step   35300   February 19, 2020  19:55:31
       Step Size:    0.472E-01 s, Total Time:    1794.33 s
       Pressure Iterations:      1
       Maximum Velocity Error:  0.85E-01 on Mesh   1 at (   9  10  11)
       Maximum Pressure Error:  0.43E+02 on Mesh   1 at (   7   9   1)
       ---------------------------------------------------------------
       Max CFL number:  0.86E+00 at (  21,  10,  15)
       Max divergence:  0.36E+01 at (   8,  11,   1)
       Min divergence: -0.74E+00 at (   8,  10,   4)
       Max VN number:   0.36E+00 at (   9,   9,  10)
       Total Heat Release Rate:            184.985 kW
       Radiation Loss to Boundaries:       -68.122 kW
 
       Time Step   35400   February 19, 2020  19:55:35
       Step Size:    0.312E-01 s, Total Time:    1799.81 s
       Pressure Iterations:      1
       Maximum Velocity Error:  0.74E-01 on Mesh   1 at (   6   8   9)
       Maximum Pressure Error:  0.23E+02 on Mesh   1 at (  21  10  15)
       ---------------------------------------------------------------
       Max CFL number:  0.88E+00 at (  21,  10,  13)
       Max divergence:  0.25E+01 at (   7,  10,   6)
       Min divergence: -0.62E+00 at (   8,  12,  10)
       Max VN number:   0.33E+00 at (  21,  10,  13)
       Total Heat Release Rate:            145.223 kW
       Radiation Loss to Boundaries:       -68.454 kW
 
       Time Step   35406   February 19, 2020  19:55:35
       Step Size:    0.316E-01 s, Total Time:    1800.00 s
       Pressure Iterations:      2
       Maximum Velocity Error:  0.33E-01 on Mesh   1 at (   6  11   5)
       Maximum Pressure Error:  0.11E+02 on Mesh   1 at (   7  13  10)
       ---------------------------------------------------------------
       Max CFL number:  0.74E+00 at (  21,  10,  16)
       Max divergence:  0.19E+01 at (   7,  11,   5)
       Min divergence: -0.69E+00 at (   8,  11,  10)
       Max VN number:   0.26E+00 at (  21,  10,  16)
       Total Heat Release Rate:            127.886 kW
       Radiation Loss to Boundaries:       -68.456 kW
 


 Time Stepping Wall Clock Time (s):     1332.678
 Total Elapsed Wall Clock Time (s):     1337.001

STOP: FDS completed successfully (CHID: door_crack)
