
 Fire Dynamics Simulator

 Current Date     : February 19, 2020  19:33:26
 Revision         : -master
 Revision Date    : Wed Feb 19 18:38:00 2020 +0100
 Compiler         : Intel ifort 18.0.1
 Compilation Date : Feb 19, 2020 18:48:59

 MPI Enabled;    Number of MPI Processes:       1
 OpenMP Enabled; Number of OpenMP Threads:      4

 MPI version: 3.1
 MPI library version: Intel(R) MPI Library 2018 Update 1 for Linux* OS


 Job TITLE        : Test of smoke leaking under a door
 Job ID string    : door_crack_scarc


 Grid Dimensions, Mesh     1

   Cells in the X Direction            25
   Cells in the Y Direction            20
   Cells in the Z Direction            16
   Number of Grid Cells              8000


 Physical Dimensions, Mesh     1

   Length (m)                       5.000
   Width  (m)                       4.000
   Height (m)                       3.200
   Initial Time Step (s)            0.177

Total Number of Grid Cells          8000


 Miscellaneous Parameters

   Simulation Start Time (s)          0.0
   Simulation End Time (s)         1800.0
   LES Calculation
   Eddy Viscosity:           Deardorff Model (C_DEARDORFF = 0.10)
   Near-wall Eddy Viscosity: Smagorinsky with Van Driest damping (C_SMAGORINSKY = 0.20)
   Turbulent Prandtl Number:         0.50
   Turbulent Schmidt Number:         0.50
   Ambient Temperature (C):         20.00


 Mass Fraction Transformation Matrix to Convert Species Mixtures (Columns) to Primitive Species (Rows)

                         AIR       PROPANE   PRODUCTS
   PROPANE               0.000000  1.000000  0.000000
   NITROGEN              0.762470  0.000000  0.716510
   OXYGEN                0.230997  0.000000  0.000000
   CARBON DIOXIDE        0.000591  0.000000  0.178848
   CARBON MONOXIDE       0.000000  0.000000  0.000000
   WATER VAPOR           0.005941  0.000000  0.104039
   SOOT                  0.000000  0.000000  0.000603
   HYDROGEN              0.000000  0.000000  0.000000


 Primitive Species Information

   PROPANE
   Gas Species
   Molecular Weight (g/mol)            44.09562
   Ambient Density (kg/m^3)            1.833
   Enthalpy of Formation (J/kg)       -2.37E+06

   NITROGEN
   Gas Species
   Molecular Weight (g/mol)            28.01340
   Ambient Density (kg/m^3)            1.165
   Enthalpy of Formation (J/kg)        0.00E+00

   OXYGEN
   Gas Species
   Molecular Weight (g/mol)            31.99880
   Ambient Density (kg/m^3)            1.330
   Enthalpy of Formation (J/kg)        0.00E+00

   CARBON DIOXIDE
   Gas Species
   Molecular Weight (g/mol)            44.00950
   Ambient Density (kg/m^3)            1.830
   Enthalpy of Formation (J/kg)       -8.94E+06

   CARBON MONOXIDE
   Gas Species
   Molecular Weight (g/mol)            28.01010
   Ambient Density (kg/m^3)            1.164
   Enthalpy of Formation (J/kg)       -3.95E+06

   WATER VAPOR
   Gas Species
   Molecular Weight (g/mol)            18.01528
   Ambient Density (kg/m^3)            0.749
   Enthalpy of Formation (J/kg)       -1.34E+07

   SOOT
   Gas Species
   Molecular Weight (g/mol)            10.91042
   Ambient Density (kg/m^3)            0.454
   Enthalpy of Formation (J/kg)        0.00E+00

   HYDROGEN
   Gas Species
   Molecular Weight (g/mol)             2.01588
   Ambient Density (kg/m^3)            0.084
   Enthalpy of Formation (J/kg)        0.00E+00


 Tracked (Lumped) Species Information

   AIR
   Molecular Weight (g/mol)            28.75199
   Ambient Density (kg/m^3)            1.195
   Initial Mass Fraction               1.000
   Enthalpy of Formation (J/kg)     -8.50E+04

   Sub Species                    Mass Fraction     Mole Fraction
   NITROGEN                       7.624701E-01      7.825730E-01
   OXYGEN                         2.309974E-01      2.075589E-01
   CARBON DIOXIDE                 5.914651E-04      3.864120E-04
   WATER VAPOR                    5.940984E-03      9.481679E-03
 
     Viscosity (kg/m/s) Ambient,  293 K:  1.80E-05
                                  500 K:  2.61E-05
                                 1000 K:  4.13E-05
                                 1500 K:  5.37E-05
   Therm. Cond. (W/m/K) Ambient,  293 K:  2.56E-02
                                  500 K:  3.81E-02
                                 1000 K:  6.69E-02
                                 1500 K:  9.25E-02
        Enthalpy (J/kg) Ambient,  293 K: -9.01E+04
                                  500 K:  1.22E+05
                                 1000 K:  6.72E+05
                                 1500 K:  1.27E+06
    Spec. Heat (J/kg/K) Ambient,  293 K:  1.02E+03
                                  500 K:  1.04E+03
                                 1000 K:  1.16E+03
                                 1500 K:  1.23E+03
   Diff. Coeff. (m^2/s) Ambient,  293 K:  1.99E-05
                                  500 K:  4.96E-05
                                 1000 K:  1.58E-04
                                 1500 K:  3.09E-04

   PROPANE
   Molecular Weight (g/mol)            44.09562
   Ambient Density (kg/m^3)            1.833
   Initial Mass Fraction               0.000
   Enthalpy of Formation (J/kg)     -2.37E+06

   Sub Species                    Mass Fraction     Mole Fraction
   PROPANE                        1.000000E+00      1.000000E+00
 
     Viscosity (kg/m/s) Ambient,  293 K:  8.08E-06
                                  500 K:  1.31E-05
                                 1000 K:  2.23E-05
                                 1500 K:  2.96E-05
   Therm. Cond. (W/m/K) Ambient,  293 K:  1.66E-02
                                  500 K:  4.18E-02
                                 1000 K:  1.11E-01
                                 1500 K:  1.72E-01
        Enthalpy (J/kg) Ambient,  293 K: -2.38E+06
                                  500 K: -1.95E+06
                                 1000 K: -2.77E+05
                                 1500 K:  1.90E+06
    Spec. Heat (J/kg/K) Ambient,  293 K:  1.65E+03
                                  500 K:  2.55E+03
                                 1000 K:  3.96E+03
                                 1500 K:  4.67E+03
   Diff. Coeff. (m^2/s) Ambient,  293 K:  1.11E-05
                                  500 K:  2.86E-05
                                 1000 K:  9.32E-05
                                 1500 K:  1.83E-04

   PRODUCTS
   Molecular Weight (g/mol)            28.19160
   Ambient Density (kg/m^3)            1.172
   Initial Mass Fraction               0.000
   Enthalpy of Formation (J/kg)     -3.00E+06

   Sub Species                    Mass Fraction     Mole Fraction
   NITROGEN                       7.165100E-01      7.210680E-01
   CARBON DIOXIDE                 1.788479E-01      1.145664E-01
   CARBON MONOXIDE                0.000000E+00      0.000000E+00
   WATER VAPOR                    1.040393E-01      1.628081E-01
   SOOT                           6.027786E-04      1.557528E-03
 
     Viscosity (kg/m/s) Ambient,  293 K:  1.61E-05
                                  500 K:  2.39E-05
                                 1000 K:  3.89E-05
                                 1500 K:  5.14E-05
   Therm. Cond. (W/m/K) Ambient,  293 K:  2.34E-02
                                  500 K:  3.62E-02
                                 1000 K:  6.71E-02
                                 1500 K:  9.63E-02
        Enthalpy (J/kg) Ambient,  293 K: -3.00E+06
                                  500 K: -2.77E+06
                                 1000 K: -2.16E+06
                                 1500 K: -1.48E+06
    Spec. Heat (J/kg/K) Ambient,  293 K:  1.09E+03
                                  500 K:  1.14E+03
                                 1000 K:  1.30E+03
                                 1500 K:  1.40E+03
   Diff. Coeff. (m^2/s) Ambient,  293 K:  1.95E-05
                                  500 K:  4.95E-05
                                 1000 K:  1.60E-04
                                 1500 K:  3.15E-04


 Gas Phase Reaction Information

   Fuel                                           Heat of Combustion (kJ/kg)
   PROPANE                                                        45998.9362

   Stoichiometry

   Primitive Species Stoich. Coeff.
   Species ID                                                          Molar
   PROPANE                                                         -1.000000
   NITROGEN                                                         0.000000
   OXYGEN                                                          -4.962615
   CARBON DIOXIDE                                                   2.963626
   WATER VAPOR                                                      3.997979
   SOOT                                                             0.040416

   Tracked (Lumped) Species Stoich. Coeff.
   Species ID                                             Molar         Mass
   AIR                                               -23.909431   -15.589840
   PROPANE                                            -1.000000    -1.000000
   PRODUCTS                                           25.948837    16.589840

   Reaction Kinetics

   Arrhenius Parameters
   Pre-exponential:    Infinite
   Activation Energy:  N/A

   ODE Solver:  EXPLICIT EULER
   Extinction Model:  EXTINCTION 2
   Auto-Ignition Temperature (K):       0.0
   Critical Flame Temperature (K):   1720.2


 Material Information


 Surface Conditions

   0 INERT (DEFAULT)

   1 DOOR CRACK

   2 BURNER
     HRR Per Unit Area (kW/m2)       1000.0
     PROPANE Mass Flux (kg/s/m2)   2.17E-02

   3 OPEN
     Passive Vent to Atmosphere

   4 MIRROR
     Symmetry Plane

   5 INTERPOLATED

   6 PERIODIC

   7 HVAC

   8 MASSLESS TRACER

   9 DROPLET

  10 EVACUATION_OUTFLOW
     Normal Velocity (m/s)         0.000

  11 MASSLESS TARGET

  12 PERIODIC WIND

  13 SLICE


 Device Coordinates

     1 Coords:      0.000000      0.000000      0.500000, Make: null, ID: Pressure, Quantity: PRESSURE
     2 Coords:     -2.400000     -2.000000      0.000000, Make: null, ID: Velocity, Quantity: DUCT VELOCITY
     3 Coords:     -2.400000     -2.000000      0.000000, Make: null, ID: Pressure Ambient, Quantity: NODE PRESSURE
     4 Coords:     -2.400000     -2.000000      0.000000, Make: null, ID: Pressure Compartment, Quantity: NODE PRESSURE


 Slice File Information, Mesh     1

   Sampling Interval (s)             1.800

   1 Nodes:   0  25  10  10   0  16, Quantity: TEMPERATURE
   2 Nodes:   0  25  10  10   0  16, Quantity: U-VELOCITY
   3 Nodes:   0  25  10  10   0  16, Quantity: V-VELOCITY
   4 Nodes:   0  25  10  10   0  16, Quantity: W-VELOCITY
   5 Nodes:   0  25  10  10   0  16, Quantity: PROPANE MASS FRACTION
   6 Nodes:   0  25  10  10   0  16, Quantity: OXYGEN MASS FRACTION
   7 Nodes:   0  25  10  10   0  16, Quantity: PRESSURE


 Radiation Model Information

   Number of control angles  104
   Time step increment         3
   Angle increment             5
   Theta band N_phi   Solid angle
     1:        4     0.120
     2:       12     0.114
     3:       16     0.127
     4:       20     0.120
     5:       20     0.120
     6:       16     0.127
     7:       12     0.114
     8:        4     0.120
   Using gray gas absorption.
   Mean beam length  0.100 m


 SCARC Information

   Discretization        STRUCTURED
   Global solver             KRYLOV
   Storage technique         BANDED
   Preconditioner               FFT
   Max iterations              1000
   Stopping accuracy       0.10E-07
 
 

 Run Time Diagnostics

       Time Step       1   February 19, 2020  19:33:26
       Step Size:    0.177E+00 s, Total Time:       0.18 s
       Pressure Iterations:      1
       Maximum Velocity Error:  0.34E-02 on Mesh   1 at (  13   5   1)
       Maximum Pressure Error:  0.30E+01 on Mesh   1 at (  13  10   1)
       ScaRC: iterations     1, residual  0.15E-12, convergence rate   0.83E-14
       ---------------------------------------------------------------
       Max CFL number:  0.17E-01 at (  20,  17,   7)
       Max divergence:  0.72E+00 at (  12,  11,   1)
       Min divergence: -0.22E-02 at (  13,  10,   2)
       Max VN number:   0.12E-01 at (   9,   7,   8)
       Total Heat Release Rate:              8.172 kW
 
       Time Step       2   February 19, 2020  19:33:26
       Step Size:    0.177E+00 s, Total Time:       0.35 s
       Pressure Iterations:      2
       Maximum Velocity Error:  0.46E-01 on Mesh   1 at (   6  10   6)
       Maximum Pressure Error:  0.10E+02 on Mesh   1 at (  13  11   1)
       ScaRC: iterations     1, residual  0.13E-12, convergence rate   0.47E-14
       ---------------------------------------------------------------
       Max CFL number:  0.66E+00 at (   7,  10,   7)
       Max divergence:  0.22E+01 at (  13,  11,   1)
       Min divergence: -0.16E-01 at (   7,  10,   5)
       Max VN number:   0.13E-01 at (  12,  11,   2)
       Total Heat Release Rate:             27.407 kW
       Radiation Loss to Boundaries:        -0.662 kW
 
       Time Step       3   February 19, 2020  19:33:26
       Step Size:    0.177E+00 s, Total Time:       0.53 s
       Pressure Iterations:      2
       Maximum Velocity Error:  0.42E-01 on Mesh   1 at (   6  10   6)
       Maximum Pressure Error:  0.70E+01 on Mesh   1 at (  12  10   1)
       ScaRC: iterations     1, residual  0.93E-13, convergence rate   0.38E-14
       ---------------------------------------------------------------
       Max CFL number:  0.53E+00 at (  12,  11,   1)
       Max divergence:  0.26E+01 at (  13,  10,   1)
       Min divergence: -0.13E-01 at (   7,  10,   5)
       Max VN number:   0.37E+00 at (   5,  10,   3)
       Total Heat Release Rate:             49.910 kW
       Radiation Loss to Boundaries:       -11.433 kW
 
       Time Step       4   February 19, 2020  19:33:26
       Step Size:    0.177E+00 s, Total Time:       0.71 s
       Pressure Iterations:      1
       Maximum Velocity Error:  0.58E-01 on Mesh   1 at (   6  10   6)
       Maximum Pressure Error:  0.74E+02 on Mesh   1 at (  13  11   1)
       ScaRC: iterations     1, residual  0.60E-12, convergence rate   0.53E-14
       ---------------------------------------------------------------
       Max CFL number:  0.84E+00 at (  13,  11,   1)
       Max divergence:  0.50E+00 at (  12,  11,   1)
       Min divergence: -0.23E+00 at (  12,  11,   2)
       Max VN number:   0.21E+00 at (   5,  10,   3)
       Total Heat Release Rate:             71.871 kW
       Radiation Loss to Boundaries:       -64.614 kW
 
       Time Step       5   February 19, 2020  19:33:26
       Step Size:    0.177E+00 s, Total Time:       0.88 s
       Pressure Iterations:      2
       Maximum Velocity Error:  0.49E-01 on Mesh   1 at (   6  10   2)
       Maximum Pressure Error:  0.67E+02 on Mesh   1 at (  12  11   1)
       ScaRC: iterations     1, residual  0.11E-12, convergence rate   0.38E-14
       ---------------------------------------------------------------
       Max CFL number:  0.10E+01 at (  12,  11,   1)
       Max divergence:  0.68E+01 at (  13,  10,   1)
       Min divergence: -0.64E+00 at (  12,  10,   2)
       Max VN number:   0.27E+00 at (  12,  11,   2)
       Total Heat Release Rate:             95.505 kW
       Radiation Loss to Boundaries:       -14.030 kW
 
       Time Step       6   February 19, 2020  19:33:26
       Step Size:    0.643E-01 s, Total Time:       0.95 s
       Pressure Iterations:      3
       Maximum Velocity Error:  0.81E-01 on Mesh   1 at (   6  10   2)
       Maximum Pressure Error:  0.78E+02 on Mesh   1 at (  13  11   1)
       ScaRC: iterations     1, residual  0.69E-12, convergence rate   0.52E-14
       ---------------------------------------------------------------
       Max CFL number:  0.86E+00 at (  13,  11,   1)
       Max divergence:  0.47E+01 at (  13,  10,   1)
       Min divergence: -0.13E+01 at (  13,  10,   2)
       Max VN number:   0.17E+00 at (  13,  10,   2)
       Total Heat Release Rate:            124.354 kW
       Radiation Loss to Boundaries:       -67.738 kW
 
       Time Step       7   February 19, 2020  19:33:26
       Step Size:    0.643E-01 s, Total Time:       1.01 s
       Pressure Iterations:      4
       Maximum Velocity Error:  0.71E-01 on Mesh   1 at (   6  11   2)
       Maximum Pressure Error:  0.14E+02 on Mesh   1 at (  13  10   1)
       ScaRC: iterations     1, residual  0.58E-12, convergence rate   0.47E-14
       ---------------------------------------------------------------
       Max CFL number:  0.82E+00 at (  13,  10,   1)
       Max divergence:  0.50E+01 at (  12,  11,   1)
       Min divergence: -0.16E+01 at (  13,  10,   2)
       Max VN number:   0.44E+00 at (   7,  11,   7)
       Total Heat Release Rate:            133.658 kW
       Radiation Loss to Boundaries:       -71.606 kW
 
       Time Step       8   February 19, 2020  19:33:26
       Step Size:    0.643E-01 s, Total Time:       1.08 s
       Pressure Iterations:      4
       Maximum Velocity Error:  0.62E-01 on Mesh   1 at (   6  11   2)
       Maximum Pressure Error:  0.15E+03 on Mesh   1 at (  13  10   1)
       ScaRC: iterations     1, residual  0.45E-12, convergence rate   0.43E-14
       ---------------------------------------------------------------
       Max CFL number:  0.89E+00 at (  13,  11,   1)
       Max divergence:  0.67E+01 at (  13,  10,   1)
       Min divergence: -0.48E+00 at (  12,  11,   2)
       Max VN number:   0.25E+00 at (  12,  11,   1)
       Total Heat Release Rate:            160.359 kW
       Radiation Loss to Boundaries:       -64.580 kW
 
       Time Step       9   February 19, 2020  19:33:26
       Step Size:    0.539E-01 s, Total Time:       1.13 s
       Pressure Iterations:      3
       Maximum Velocity Error:  0.82E-01 on Mesh   1 at (   6  11   3)
       Maximum Pressure Error:  0.23E+03 on Mesh   1 at (  13  10   1)
       ScaRC: iterations     1, residual  0.60E-12, convergence rate   0.39E-14
       ---------------------------------------------------------------
       Max CFL number:  0.90E+00 at (  13,  10,   1)
       Max divergence:  0.36E+01 at (  12,  11,   1)
       Min divergence: -0.11E+01 at (  13,  10,   3)
       Max VN number:   0.35E+00 at (   7,  11,   7)
       Total Heat Release Rate:            154.987 kW
       Radiation Loss to Boundaries:       -93.577 kW
 
       Time Step      10   February 19, 2020  19:33:26
       Step Size:    0.539E-01 s, Total Time:       1.18 s
       Pressure Iterations:      2
       Maximum Velocity Error:  0.82E-01 on Mesh   1 at (   6  10   6)
       Maximum Pressure Error:  0.22E+03 on Mesh   1 at (  13  10   1)
       ScaRC: iterations     1, residual  0.67E-12, convergence rate   0.41E-14
       ---------------------------------------------------------------
       Max CFL number:  0.75E+00 at (  13,  10,   3)
       Max divergence:  0.68E+01 at (  13,  10,   1)
       Min divergence: -0.11E+01 at (  13,  10,   3)
       Max VN number:   0.27E+00 at (  13,  10,   2)
       Total Heat Release Rate:            168.270 kW
       Radiation Loss to Boundaries:       -50.426 kW
 
       Time Step      20   February 19, 2020  19:33:27
       Step Size:    0.366E-01 s, Total Time:       1.63 s
       Pressure Iterations:      1
       Maximum Velocity Error:  0.22E-01 on Mesh   1 at (  13  10  11)
       Maximum Pressure Error:  0.27E+02 on Mesh   1 at (  13  10   1)
       ScaRC: iterations     1, residual  0.72E-12, convergence rate   0.14E-14
       ---------------------------------------------------------------
       Max CFL number:  0.88E+00 at (  12,  10,   7)
       Max divergence:  0.53E+01 at (  12,  10,   1)
       Min divergence: -0.44E+00 at (  13,  10,   3)
       Max VN number:   0.29E+00 at (  13,  10,   6)
       Total Heat Release Rate:            144.885 kW
       Radiation Loss to Boundaries:       -39.080 kW
 
       Time Step      30   February 19, 2020  19:33:27
       Step Size:    0.366E-01 s, Total Time:       2.00 s
       Pressure Iterations:      1
       Maximum Velocity Error:  0.68E-01 on Mesh   1 at (  12  11  11)
       Maximum Pressure Error:  0.76E+01 on Mesh   1 at (  13   9  10)
       ScaRC: iterations     1, residual  0.64E-12, convergence rate   0.11E-14
       ---------------------------------------------------------------
       Max CFL number:  0.84E+00 at (  12,  10,   6)
       Max divergence:  0.51E+01 at (  13,  10,   1)
       Min divergence: -0.56E+00 at (  13,  10,   9)
       Max VN number:   0.69E+00 at (  12,  10,  10)
       Total Heat Release Rate:            150.118 kW
       Radiation Loss to Boundaries:       -41.068 kW
 
       Time Step      40   February 19, 2020  19:33:27
       Step Size:    0.403E-01 s, Total Time:       2.37 s
       Pressure Iterations:      1
       Maximum Velocity Error:  0.48E-01 on Mesh   1 at (  12  11  11)
       Maximum Pressure Error:  0.35E+01 on Mesh   1 at (  12  11   7)
       ScaRC: iterations     1, residual  0.54E-12, convergence rate   0.16E-14
       ---------------------------------------------------------------
       Max CFL number:  0.87E+00 at (  12,  11,   5)
       Max divergence:  0.53E+01 at (  13,  10,   1)
       Min divergence: -0.78E+00 at (  12,  11,   4)
       Max VN number:   0.61E+00 at (  12,  10,  10)
       Total Heat Release Rate:            156.283 kW
       Radiation Loss to Boundaries:       -41.686 kW
 
       Time Step      50   February 19, 2020  19:33:28
       Step Size:    0.403E-01 s, Total Time:       2.78 s
       Pressure Iterations:      1
       Maximum Velocity Error:  0.17E-01 on Mesh   1 at (   9   7  11)
       Maximum Pressure Error:  0.30E+01 on Mesh   1 at (   8   6  10)
       ScaRC: iterations     1, residual  0.29E-12, convergence rate   0.15E-14
       ---------------------------------------------------------------
       Max CFL number:  0.83E+00 at (  12,  11,   7)
       Max divergence:  0.55E+01 at (  13,  10,   1)
       Min divergence: -0.86E+00 at (  12,  11,   4)
       Max VN number:   0.62E+00 at (  12,  11,  10)
       Total Heat Release Rate:            169.547 kW
       Radiation Loss to Boundaries:       -47.001 kW
 
       Time Step      60   February 19, 2020  19:33:28
       Step Size:    0.403E-01 s, Total Time:       3.18 s
       Pressure Iterations:      1
       Maximum Velocity Error:  0.22E-01 on Mesh   1 at (  12  11  11)
       Maximum Pressure Error:  0.49E+01 on Mesh   1 at (  12  11  10)
       ScaRC: iterations     1, residual  0.38E-12, convergence rate   0.29E-14
       ---------------------------------------------------------------
       Max CFL number:  0.94E+00 at (  12,  11,   7)
       Max divergence:  0.50E+01 at (  12,  11,   1)
       Min divergence: -0.90E+00 at (  12,  11,   4)
       Max VN number:   0.65E+00 at (  12,  11,  10)
       Total Heat Release Rate:            158.529 kW
       Radiation Loss to Boundaries:       -39.193 kW
 
       Time Step      70   February 19, 2020  19:33:28
       Step Size:    0.403E-01 s, Total Time:       3.58 s
       Pressure Iterations:      1
       Maximum Velocity Error:  0.11E-01 on Mesh   1 at (  13  10  11)
       Maximum Pressure Error:  0.27E+01 on Mesh   1 at (  12  11   2)
       ScaRC: iterations     1, residual  0.17E-12, convergence rate   0.15E-14
       ---------------------------------------------------------------
       Max CFL number:  0.92E+00 at (  12,  11,   7)
       Max divergence:  0.59E+01 at (  12,  11,   1)
       Min divergence: -0.80E+00 at (  12,  11,   6)
       Max VN number:   0.61E+00 at (  12,  11,  10)
       Total Heat Release Rate:            164.574 kW
       Radiation Loss to Boundaries:       -43.030 kW
 
       Time Step      80   February 19, 2020  19:33:29
       Step Size:    0.403E-01 s, Total Time:       3.98 s
       Pressure Iterations:      1
       Maximum Velocity Error:  0.13E-01 on Mesh   1 at (  12  11  11)
       Maximum Pressure Error:  0.56E+01 on Mesh   1 at (  13  11   1)
       ScaRC: iterations     1, residual  0.13E-12, convergence rate   0.15E-14
       ---------------------------------------------------------------
       Max CFL number:  0.89E+00 at (  12,  11,   7)
       Max divergence:  0.55E+01 at (  13,  10,   1)
       Min divergence: -0.73E+00 at (  13,  10,   4)
       Max VN number:   0.62E+00 at (  12,  11,  10)
       Total Heat Release Rate:            157.325 kW
       Radiation Loss to Boundaries:       -40.258 kW
 
       Time Step      90   February 19, 2020  19:33:29
       Step Size:    0.403E-01 s, Total Time:       4.39 s
       Pressure Iterations:      1
       Maximum Velocity Error:  0.11E-01 on Mesh   1 at (  12  10  11)
       Maximum Pressure Error:  0.35E+01 on Mesh   1 at (  13  10   1)
       ScaRC: iterations     1, residual  0.13E-12, convergence rate   0.17E-14
       ---------------------------------------------------------------
       Max CFL number:  0.84E+00 at (  12,  10,   6)
       Max divergence:  0.57E+01 at (  12,  10,   1)
       Min divergence: -0.74E+00 at (  12,  10,   4)
       Max VN number:   0.58E+00 at (  13,  10,  10)
       Total Heat Release Rate:            159.979 kW
       Radiation Loss to Boundaries:       -42.318 kW
 
       Time Step     100   February 19, 2020  19:33:30
       Step Size:    0.403E-01 s, Total Time:       4.79 s
       Pressure Iterations:      1
       Maximum Velocity Error:  0.89E-02 on Mesh   1 at (  13  10  11)
       Maximum Pressure Error:  0.26E+01 on Mesh   1 at (  12  10   1)
       ScaRC: iterations     1, residual  0.13E-12, convergence rate   0.19E-14
       ---------------------------------------------------------------
       Max CFL number:  0.87E+00 at (  12,  10,   7)
       Max divergence:  0.59E+01 at (  12,  10,   1)
       Min divergence: -0.72E+00 at (  12,  10,   5)
       Max VN number:   0.60E+00 at (  12,  10,  10)
       Total Heat Release Rate:            161.963 kW
       Radiation Loss to Boundaries:       -43.087 kW
 
       Time Step     200   February 19, 2020  19:33:33
       Step Size:    0.403E-01 s, Total Time:       8.82 s
       Pressure Iterations:      1
       Maximum Velocity Error:  0.23E-01 on Mesh   1 at (  12   9  11)
       Maximum Pressure Error:  0.34E+01 on Mesh   1 at (  13  10   1)
       ScaRC: iterations     1, residual  0.20E-12, convergence rate   0.15E-14
       ---------------------------------------------------------------
       Max CFL number:  0.85E+00 at (  12,  10,   7)
       Max divergence:  0.50E+01 at (  13,  11,   1)
       Min divergence: -0.88E+00 at (  12,  10,   4)
       Max VN number:   0.55E+00 at (  12,  10,  10)
       Total Heat Release Rate:            159.470 kW
       Radiation Loss to Boundaries:       -43.758 kW
 
       Time Step     300   February 19, 2020  19:33:37
       Step Size:    0.403E-01 s, Total Time:      12.84 s
       Pressure Iterations:      1
       Maximum Velocity Error:  0.31E-01 on Mesh   1 at (  10  10  11)
       Maximum Pressure Error:  0.59E+01 on Mesh   1 at (  12  11   1)
       ScaRC: iterations     1, residual  0.33E-12, convergence rate   0.14E-14
       ---------------------------------------------------------------
       Max CFL number:  0.95E+00 at (  12,  10,   8)
       Max divergence:  0.50E+01 at (  12,  10,   1)
       Min divergence: -0.14E+01 at (  12,  10,   4)
       Max VN number:   0.57E+00 at (  12,  10,  10)
       Total Heat Release Rate:            160.955 kW
       Radiation Loss to Boundaries:       -51.627 kW
 
       Time Step     400   February 19, 2020  19:33:41
       Step Size:    0.412E-01 s, Total Time:      17.02 s
       Pressure Iterations:      1
       Maximum Velocity Error:  0.76E-01 on Mesh   1 at (   6  11   3)
       Maximum Pressure Error:  0.49E+02 on Mesh   1 at (  12  10   1)
       ScaRC: iterations     1, residual  0.27E-11, convergence rate   0.50E-14
       ---------------------------------------------------------------
       Max CFL number:  0.96E+00 at (  11,  10,   5)
       Max divergence:  0.47E+01 at (  12,  11,   1)
       Min divergence: -0.76E+00 at (  11,  10,   5)
       Max VN number:   0.41E+00 at (  11,  11,  10)
       Total Heat Release Rate:            128.606 kW
       Radiation Loss to Boundaries:       -43.417 kW
 
       Time Step     500   February 19, 2020  19:33:44
       Step Size:    0.452E-01 s, Total Time:      21.78 s
       Pressure Iterations:      2
       Maximum Velocity Error:  0.37E-01 on Mesh   1 at (   6  11   7)
       Maximum Pressure Error:  0.25E+02 on Mesh   1 at (  12   9   1)
       ScaRC: iterations     1, residual  0.27E-12, convergence rate   0.33E-14
       ---------------------------------------------------------------
       Max CFL number:  0.81E+00 at (  11,  10,   7)
       Max divergence:  0.54E+01 at (  12,  11,   1)
       Min divergence: -0.67E+00 at (  11,  11,   2)
       Max VN number:   0.36E+00 at (   7,  11,  10)
       Total Heat Release Rate:            159.074 kW
       Radiation Loss to Boundaries:       -58.483 kW
 
       Time Step     600   February 19, 2020  19:33:48
       Step Size:    0.438E-01 s, Total Time:      26.64 s
       Pressure Iterations:      2
       Maximum Velocity Error:  0.26E-01 on Mesh   1 at (   8  11  11)
       Maximum Pressure Error:  0.93E+02 on Mesh   1 at (  10  10   1)
       ScaRC: iterations     1, residual  0.11E-12, convergence rate   0.22E-14
       ---------------------------------------------------------------
       Max CFL number:  0.88E+00 at (   8,  10,   8)
       Max divergence:  0.40E+01 at (  12,  11,   1)
       Min divergence: -0.17E+01 at (  10,  10,   2)
       Max VN number:   0.51E+00 at (   8,  11,  10)
       Total Heat Release Rate:            139.786 kW
       Radiation Loss to Boundaries:       -68.338 kW
 
       Time Step     700   February 19, 2020  19:33:52
       Step Size:    0.518E-01 s, Total Time:      31.49 s
       Pressure Iterations:      1
       Maximum Velocity Error:  0.79E-01 on Mesh   1 at (   6  11   2)
       Maximum Pressure Error:  0.29E+03 on Mesh   1 at (  12  10   1)
       ScaRC: iterations     1, residual  0.25E-11, convergence rate   0.24E-14
       ---------------------------------------------------------------
       Max CFL number:  0.84E+00 at (  12,  11,   1)
       Max divergence:  0.99E+01 at (  12,  10,   1)
       Min divergence: -0.53E+00 at (  12,  11,   3)
       Max VN number:   0.37E+00 at (  10,   9,  10)
       Total Heat Release Rate:            176.490 kW
       Radiation Loss to Boundaries:       -71.807 kW
 
       Time Step     800   February 19, 2020  19:33:56
       Step Size:    0.423E-01 s, Total Time:      36.06 s
       Pressure Iterations:      2
       Maximum Velocity Error:  0.25E-01 on Mesh   1 at (  11   9  11)
       Maximum Pressure Error:  0.48E+02 on Mesh   1 at (  11  11   1)
       ScaRC: iterations     1, residual  0.17E-12, convergence rate   0.26E-14
       ---------------------------------------------------------------
       Max CFL number:  0.88E+00 at (  11,   9,   9)
       Max divergence:  0.45E+01 at (  12,  11,   1)
       Min divergence: -0.89E+00 at (  12,  10,   4)
       Max VN number:   0.49E+00 at (  10,   9,  10)
       Total Heat Release Rate:            162.135 kW
       Radiation Loss to Boundaries:       -88.356 kW
 
       Time Step     900   February 19, 2020  19:34:00
       Step Size:    0.423E-01 s, Total Time:      40.83 s
       Pressure Iterations:      2
       Maximum Velocity Error:  0.63E-01 on Mesh   1 at (   6  11   3)
       Maximum Pressure Error:  0.31E+03 on Mesh   1 at (  12   9   1)
       ScaRC: iterations     1, residual  0.58E-12, convergence rate   0.40E-14
       ---------------------------------------------------------------
       Max CFL number:  0.90E+00 at (  11,   9,   7)
       Max divergence:  0.49E+01 at (  13,  11,   1)
       Min divergence: -0.49E+00 at (  12,   9,   4)
       Max VN number:   0.48E+00 at (  12,   7,  10)
       Total Heat Release Rate:            172.619 kW
       Radiation Loss to Boundaries:       -91.509 kW
 
       Time Step    1000   February 19, 2020  19:34:04
       Step Size:    0.583E-01 s, Total Time:      46.08 s
       Pressure Iterations:      1
       Maximum Velocity Error:  0.80E-01 on Mesh   1 at (  10   5  10)
       Maximum Pressure Error:  0.47E+02 on Mesh   1 at (   8  11  10)
       ScaRC: iterations     1, residual  0.71E-12, convergence rate   0.13E-14
       ---------------------------------------------------------------
       Max CFL number:  0.90E+00 at (  14,   7,   5)
       Max divergence:  0.40E+01 at (  12,  10,   1)
       Min divergence: -0.10E+01 at (  15,   8,   3)
       Max VN number:   0.51E+00 at (  10,   6,  10)
       Total Heat Release Rate:            154.249 kW
       Radiation Loss to Boundaries:       -88.012 kW
 
       Time Step    1100   February 19, 2020  19:34:07
       Step Size:    0.495E-01 s, Total Time:      51.43 s
       Pressure Iterations:      1
       Maximum Velocity Error:  0.55E-01 on Mesh   1 at (  18  10  11)
       Maximum Pressure Error:  0.11E+02 on Mesh   1 at (  14   8   1)
       ScaRC: iterations     1, residual  0.61E-12, convergence rate   0.12E-14
       ---------------------------------------------------------------
       Max CFL number:  0.89E+00 at (  13,   8,   4)
       Max divergence:  0.55E+01 at (  12,  10,   1)
       Min divergence: -0.51E+00 at (  13,   8,   5)
       Max VN number:   0.41E+00 at (  13,   9,   1)
       Total Heat Release Rate:            161.483 kW
       Radiation Loss to Boundaries:       -90.024 kW
 
       Time Step    1200   February 19, 2020  19:34:11
       Step Size:    0.614E-01 s, Total Time:      56.97 s
       Pressure Iterations:      2
       Maximum Velocity Error:  0.53E-01 on Mesh   1 at (   6  11   3)
       Maximum Pressure Error:  0.15E+03 on Mesh   1 at (  16  10   1)
       ScaRC: iterations     1, residual  0.39E-12, convergence rate   0.40E-14
       ---------------------------------------------------------------
       Max CFL number:  0.99E+00 at (  17,   9,   5)
       Max divergence:  0.41E+01 at (  13,  11,   1)
       Min divergence: -0.65E+00 at (  17,   9,   2)
       Max VN number:   0.42E+00 at (  19,   8,   9)
       Total Heat Release Rate:            162.239 kW
       Radiation Loss to Boundaries:       -93.937 kW
 
       Time Step    1300   February 19, 2020  19:34:15
       Step Size:    0.533E-01 s, Total Time:      62.40 s
       Pressure Iterations:      2
       Maximum Velocity Error:  0.73E-01 on Mesh   1 at (   6  10   2)
       Maximum Pressure Error:  0.50E+02 on Mesh   1 at (  16  10   1)
       ScaRC: iterations     1, residual  0.55E-12, convergence rate   0.39E-14
       ---------------------------------------------------------------
       Max CFL number:  0.79E+00 at (  19,  11,   8)
       Max divergence:  0.47E+01 at (  13,  10,   1)
       Min divergence: -0.79E+00 at (  16,  11,   1)
       Max VN number:   0.41E+00 at (  19,  12,  10)
       Total Heat Release Rate:            170.874 kW
       Radiation Loss to Boundaries:       -92.639 kW
 
       Time Step    1400   February 19, 2020  19:34:19
       Step Size:    0.474E-01 s, Total Time:      67.57 s
       Pressure Iterations:      1
       Maximum Velocity Error:  0.94E-01 on Mesh   1 at (  20  11  10)
       Maximum Pressure Error:  0.20E+03 on Mesh   1 at (  15  12   1)
       ScaRC: iterations     1, residual  0.12E-11, convergence rate   0.14E-14
       ---------------------------------------------------------------
       Max CFL number:  0.89E+00 at (  18,  10,   6)
       Max divergence:  0.53E+01 at (  13,  11,   1)
       Min divergence: -0.11E+01 at (  16,  12,   1)
       Max VN number:   0.44E+00 at (  18,  10,  10)
       Total Heat Release Rate:            201.493 kW
       Radiation Loss to Boundaries:      -101.791 kW
 
       Time Step    1500   February 19, 2020  19:34:23
       Step Size:    0.606E-01 s, Total Time:      72.70 s
       Pressure Iterations:      2
       Maximum Velocity Error:  0.28E-01 on Mesh   1 at (   6  11   7)
       Maximum Pressure Error:  0.13E+03 on Mesh   1 at (  14  11   1)
       ScaRC: iterations     1, residual  0.21E-12, convergence rate   0.32E-14
       ---------------------------------------------------------------
       Max CFL number:  0.87E+00 at (  11,   6,   9)
       Max divergence:  0.39E+01 at (  13,  10,   1)
       Min divergence: -0.64E+00 at (  15,  11,   1)
       Max VN number:   0.43E+00 at (  17,   7,  10)
       Total Heat Release Rate:            125.354 kW
       Radiation Loss to Boundaries:       -75.889 kW
 
       Time Step    1600   February 19, 2020  19:34:27
       Step Size:    0.644E-01 s, Total Time:      78.11 s
       Pressure Iterations:      2
       Maximum Velocity Error:  0.63E-01 on Mesh   1 at (   6  10   2)
       Maximum Pressure Error:  0.16E+03 on Mesh   1 at (  16   9   1)
       ScaRC: iterations     1, residual  0.39E-12, convergence rate   0.37E-14
       ---------------------------------------------------------------
       Max CFL number:  0.82E+00 at (  19,  12,  10)
       Max divergence:  0.80E+01 at (  16,   9,   1)
       Min divergence: -0.81E+00 at (  14,   9,   1)
       Max VN number:   0.46E+00 at (  15,   7,  10)
       Total Heat Release Rate:            149.586 kW
       Radiation Loss to Boundaries:       -76.290 kW
 
       Time Step    1700   February 19, 2020  19:34:31
       Step Size:    0.528E-01 s, Total Time:      83.55 s
       Pressure Iterations:      2
       Maximum Velocity Error:  0.56E-01 on Mesh   1 at (   6  10   6)
       Maximum Pressure Error:  0.33E+03 on Mesh   1 at (  13  11   1)
       ScaRC: iterations     1, residual  0.46E-12, convergence rate   0.41E-14
       ---------------------------------------------------------------
       Max CFL number:  0.73E+00 at (  13,  10,   1)
       Max divergence:  0.59E+01 at (  13,  11,   1)
       Min divergence: -0.65E+00 at (  14,  11,   1)
       Max VN number:   0.42E+00 at (  18,   9,  10)
       Total Heat Release Rate:            151.545 kW
       Radiation Loss to Boundaries:       -78.898 kW
 
       Time Step    1800   February 19, 2020  19:34:35
       Step Size:    0.648E-01 s, Total Time:      89.28 s
       Pressure Iterations:      1
       Maximum Velocity Error:  0.89E-01 on Mesh   1 at (  20   9  10)
       Maximum Pressure Error:  0.20E+03 on Mesh   1 at (  13  10   1)
       ScaRC: iterations     1, residual  0.19E-11, convergence rate   0.13E-14
       ---------------------------------------------------------------
       Max CFL number:  0.87E+00 at (  13,  10,   1)
       Max divergence:  0.50E+01 at (  13,  11,   1)
       Min divergence: -0.53E+00 at (  16,  12,   1)
       Max VN number:   0.49E+00 at (  18,  11,  10)
       Total Heat Release Rate:            139.989 kW
       Radiation Loss to Boundaries:       -71.810 kW
 
       Time Step    1900   February 19, 2020  19:34:39
       Step Size:    0.576E-01 s, Total Time:      95.08 s
       Pressure Iterations:      2
       Maximum Velocity Error:  0.98E-01 on Mesh   1 at (   6  10   2)
       Maximum Pressure Error:  0.12E+03 on Mesh   1 at (  14  11   1)
       ScaRC: iterations     1, residual  0.67E-12, convergence rate   0.41E-14
       ---------------------------------------------------------------
       Max CFL number:  0.87E+00 at (  13,  10,   1)
       Max divergence:  0.36E+01 at (  13,  11,   1)
       Min divergence: -0.48E+00 at (  15,  10,   1)
       Max VN number:   0.33E+00 at (  10,  10,   1)
       Total Heat Release Rate:            138.063 kW
       Radiation Loss to Boundaries:       -79.457 kW
 
       Time Step    2000   February 19, 2020  19:34:43
       Step Size:    0.684E-01 s, Total Time:     100.75 s
       Pressure Iterations:      2
       Maximum Velocity Error:  0.31E-01 on Mesh   1 at (   6  10   3)
       Maximum Pressure Error:  0.22E+03 on Mesh   1 at (  13  11   1)
       ScaRC: iterations     1, residual  0.37E-12, convergence rate   0.99E-15
       ---------------------------------------------------------------
       Max CFL number:  0.93E+00 at (  13,  11,   1)
       Max divergence:  0.29E+01 at (  12,  11,   1)
       Min divergence: -0.60E+00 at (  13,  11,   1)
       Max VN number:   0.54E+00 at (  18,   9,  10)
       Total Heat Release Rate:             77.267 kW
       Radiation Loss to Boundaries:       -52.595 kW
 
       Time Step    2100   February 19, 2020  19:34:47
       Step Size:    0.550E-01 s, Total Time:     106.74 s
       Pressure Iterations:      2
       Maximum Velocity Error:  0.88E-01 on Mesh   1 at (   6  10   3)
       Maximum Pressure Error:  0.85E+02 on Mesh   1 at (  16  10   1)
       ScaRC: iterations     1, residual  0.55E-12, convergence rate   0.36E-14
       ---------------------------------------------------------------
       Max CFL number:  0.98E+00 at (  17,   9,   9)
       Max divergence:  0.30E+01 at (  13,  11,   1)
       Min divergence: -0.87E+00 at (  13,  10,   1)
       Max VN number:   0.43E+00 at (  17,   9,  10)
       Total Heat Release Rate:            201.283 kW
       Radiation Loss to Boundaries:       -73.920 kW
 
       Time Step    2200   February 19, 2020  19:34:51
       Step Size:    0.584E-01 s, Total Time:     112.75 s
       Pressure Iterations:      5
       Maximum Velocity Error:  0.72E-01 on Mesh   1 at (   6  10   3)
       Maximum Pressure Error:  0.96E+02 on Mesh   1 at (  16   8   1)
       ScaRC: iterations     1, residual  0.76E-12, convergence rate   0.50E-14
       ---------------------------------------------------------------
       Max CFL number:  0.87E+00 at (   7,  11,   7)
       Max divergence:  0.32E+01 at (  13,  11,   1)
       Min divergence: -0.47E+00 at (   5,  11,   2)
       Max VN number:   0.37E+00 at (   5,  10,   3)
       Total Heat Release Rate:            228.660 kW
       Radiation Loss to Boundaries:       -96.922 kW
 
       Time Step    2300   February 19, 2020  19:34:55
       Step Size:    0.663E-01 s, Total Time:     118.64 s
       Pressure Iterations:      4
       Maximum Velocity Error:  0.61E-01 on Mesh   1 at (   6  10   2)
       Maximum Pressure Error:  0.18E+03 on Mesh   1 at (  14   9   1)
       ScaRC: iterations     1, residual  0.51E-12, convergence rate   0.49E-14
       ---------------------------------------------------------------
       Max CFL number:  0.93E+00 at (  13,  11,   1)
       Max divergence:  0.51E+01 at (  14,  10,   1)
       Min divergence: -0.38E+00 at (  14,   9,   3)
       Max VN number:   0.48E+00 at (   7,  10,   1)
       Total Heat Release Rate:            246.345 kW
       Radiation Loss to Boundaries:       -87.886 kW
 
       Time Step    2400   February 19, 2020  19:34:59
       Step Size:    0.685E-01 s, Total Time:     124.37 s
       Pressure Iterations:      2
       Maximum Velocity Error:  0.39E-01 on Mesh   1 at (   6  11   2)
       Maximum Pressure Error:  0.53E+02 on Mesh   1 at (  17  10   3)
       ScaRC: iterations     1, residual  0.23E-12, convergence rate   0.33E-14
       ---------------------------------------------------------------
       Max CFL number:  0.91E+00 at (  21,  10,  15)
       Max divergence:  0.27E+01 at (  17,   9,   1)
       Min divergence: -0.40E+00 at (  17,  10,   2)
       Max VN number:   0.40E+00 at (  19,  13,  10)
       Total Heat Release Rate:            142.908 kW
       Radiation Loss to Boundaries:       -59.807 kW
 
       Time Step    2500   February 19, 2020  19:35:03
       Step Size:    0.664E-01 s, Total Time:     130.21 s
       Pressure Iterations:      3
       Maximum Velocity Error:  0.61E-01 on Mesh   1 at (   6  11   2)
       Maximum Pressure Error:  0.19E+03 on Mesh   1 at (  15   9   1)
       ScaRC: iterations     1, residual  0.44E-12, convergence rate   0.46E-14
       ---------------------------------------------------------------
       Max CFL number:  0.80E+00 at (  21,  11,  15)
       Max divergence:  0.12E+02 at (  13,  11,   1)
       Min divergence: -0.60E+00 at (  15,   9,   1)
       Max VN number:   0.39E+00 at (  19,  15,   1)
       Total Heat Release Rate:            229.836 kW
       Radiation Loss to Boundaries:       -79.261 kW
 
       Time Step    2600   February 19, 2020  19:35:07
       Step Size:    0.623E-01 s, Total Time:     135.76 s
       Pressure Iterations:      1
       Maximum Velocity Error:  0.91E-01 on Mesh   1 at (   6  11   7)
       Maximum Pressure Error:  0.91E+02 on Mesh   1 at (  13  10   1)
       ScaRC: iterations     1, residual  0.24E-11, convergence rate   0.44E-14
       ---------------------------------------------------------------
       Max CFL number:  0.83E+00 at (  21,  10,  15)
       Max divergence:  0.10E+02 at (  13,  10,   1)
       Min divergence: -0.22E+00 at (  19,   9,   2)
       Max VN number:   0.38E+00 at (  19,  13,  10)
       Total Heat Release Rate:            130.475 kW
       Radiation Loss to Boundaries:       -52.037 kW
 
       Time Step    2700   February 19, 2020  19:35:11
       Step Size:    0.689E-01 s, Total Time:     142.16 s
       Pressure Iterations:      2
       Maximum Velocity Error:  0.68E-01 on Mesh   1 at (   6  11   7)
       Maximum Pressure Error:  0.19E+03 on Mesh   1 at (  13   8   1)
       ScaRC: iterations     1, residual  0.64E-12, convergence rate   0.17E-14
       ---------------------------------------------------------------
       Max CFL number:  0.96E+00 at (  21,   9,  12)
       Max divergence:  0.26E+01 at (  14,   7,   3)
       Min divergence: -0.61E+00 at (  13,   9,   1)
       Max VN number:   0.39E+00 at (  21,   9,  12)
       Total Heat Release Rate:            149.942 kW
       Radiation Loss to Boundaries:       -68.191 kW
 
       Time Step    2800   February 19, 2020  19:35:15
       Step Size:    0.533E-01 s, Total Time:     148.08 s
       Pressure Iterations:      2
       Maximum Velocity Error:  0.31E-01 on Mesh   1 at (  20  11  10)
       Maximum Pressure Error:  0.23E+02 on Mesh   1 at (  14   8   1)
       ScaRC: iterations     1, residual  0.28E-12, convergence rate   0.32E-14
       ---------------------------------------------------------------
       Max CFL number:  0.87E+00 at (  21,  11,  13)
       Max divergence:  0.18E+01 at (  18,   7,   1)
       Min divergence: -0.26E+00 at (  21,  11,  12)
       Max VN number:   0.37E+00 at (  14,   7,  10)
       Total Heat Release Rate:            130.818 kW
       Radiation Loss to Boundaries:       -56.734 kW
 
       Time Step    2900   February 19, 2020  19:35:19
       Step Size:    0.579E-01 s, Total Time:     153.53 s
       Pressure Iterations:      2
       Maximum Velocity Error:  0.29E-01 on Mesh   1 at (   6  10   3)
       Maximum Pressure Error:  0.19E+02 on Mesh   1 at (  15   6   4)
       ScaRC: iterations     1, residual  0.25E-12, convergence rate   0.37E-14
       ---------------------------------------------------------------
       Max CFL number:  0.87E+00 at (  21,  10,  15)
       Max divergence:  0.14E+01 at (  12,   9,   1)
       Min divergence: -0.20E+00 at (  21,  11,  12)
       Max VN number:   0.36E+00 at (  12,   6,  10)
       Total Heat Release Rate:            116.529 kW
       Radiation Loss to Boundaries:       -61.437 kW
 
       Time Step    3000   February 19, 2020  19:35:23
       Step Size:    0.682E-01 s, Total Time:     159.91 s
       Pressure Iterations:      1
       Maximum Velocity Error:  0.67E-01 on Mesh   1 at (   6  12   1)
       Maximum Pressure Error:  0.64E+01 on Mesh   1 at (   8  11   1)
       ScaRC: iterations     1, residual  0.72E-12, convergence rate   0.28E-14
       ---------------------------------------------------------------
       Max CFL number:  0.83E+00 at (  21,  11,  12)
       Max divergence:  0.81E+00 at (  10,   9,   7)
       Min divergence: -0.29E+00 at (   9,  12,   1)
       Max VN number:   0.42E+00 at (   7,  11,   1)
       Total Heat Release Rate:             71.673 kW
       Radiation Loss to Boundaries:       -42.866 kW
 
       Time Step    3100   February 19, 2020  19:35:27
       Step Size:    0.644E-01 s, Total Time:     165.63 s
       Pressure Iterations:      1
       Maximum Velocity Error:  0.54E-01 on Mesh   1 at (   8   6  11)
       Maximum Pressure Error:  0.10E+02 on Mesh   1 at (   8   6  10)
       ScaRC: iterations     1, residual  0.47E-12, convergence rate   0.17E-14
       ---------------------------------------------------------------
       Max CFL number:  0.10E+01 at (  21,  12,  12)
       Max divergence:  0.21E+01 at (  10,   8,   2)
       Min divergence: -0.44E+00 at (  21,  12,  12)
       Max VN number:   0.41E+00 at (  21,  12,  12)
       Total Heat Release Rate:            139.593 kW
       Radiation Loss to Boundaries:       -59.631 kW
 
       Time Step    3200   February 19, 2020  19:35:31
       Step Size:    0.617E-01 s, Total Time:     171.85 s
       Pressure Iterations:      2
       Maximum Velocity Error:  0.56E-01 on Mesh   1 at (   6  11   6)
       Maximum Pressure Error:  0.12E+02 on Mesh   1 at (   8   6   1)
       ScaRC: iterations     1, residual  0.39E-12, convergence rate   0.38E-14
       ---------------------------------------------------------------
       Max CFL number:  0.80E+00 at (   4,  10,  15)
       Max divergence:  0.26E+01 at (   7,  10,   3)
       Min divergence: -0.30E+00 at (   7,   7,   5)
       Max VN number:   0.36E+00 at (  12,   6,  10)
       Total Heat Release Rate:             99.311 kW
       Radiation Loss to Boundaries:       -55.461 kW
 
       Time Step    3300   February 19, 2020  19:35:36
       Step Size:    0.521E-01 s, Total Time:     176.03 s
       Pressure Iterations:      4
       Maximum Velocity Error:  0.59E-01 on Mesh   1 at (   6  11   3)
       Maximum Pressure Error:  0.74E+02 on Mesh   1 at (   7  11   7)
       ScaRC: iterations     1, residual  0.53E-12, convergence rate   0.43E-14
       ---------------------------------------------------------------
       Max CFL number:  0.70E+00 at (   3,  10,  13)
       Max divergence:  0.10E+01 at (   7,  13,   6)
       Min divergence: -0.23E+00 at (   7,  12,   7)
       Max VN number:   0.45E+00 at (   5,  11,   3)
       Total Heat Release Rate:             69.390 kW
       Radiation Loss to Boundaries:       -55.569 kW
 
       Time Step    3400   February 19, 2020  19:35:40
       Step Size:    0.603E-01 s, Total Time:     182.06 s
       Pressure Iterations:      2
       Maximum Velocity Error:  0.67E-01 on Mesh   1 at (   6  11   2)
       Maximum Pressure Error:  0.26E+02 on Mesh   1 at (   7  13   1)
       ScaRC: iterations     1, residual  0.42E-12, convergence rate   0.42E-14
       ---------------------------------------------------------------
       Max CFL number:  0.83E+00 at (  21,  12,  12)
       Max divergence:  0.20E+01 at (   9,  11,   1)
       Min divergence: -0.42E+00 at (   9,  10,   4)
       Max VN number:   0.37E+00 at (   8,  13,  10)
       Total Heat Release Rate:            141.298 kW
       Radiation Loss to Boundaries:       -65.794 kW
 
       Time Step    3500   February 19, 2020  19:35:44
       Step Size:    0.589E-01 s, Total Time:     188.30 s
       Pressure Iterations:      2
       Maximum Velocity Error:  0.44E-01 on Mesh   1 at (   6  10   3)
       Maximum Pressure Error:  0.26E+02 on Mesh   1 at (   8  12   1)
       ScaRC: iterations     1, residual  0.33E-12, convergence rate   0.39E-14
       ---------------------------------------------------------------
       Max CFL number:  0.88E+00 at (   9,   9,   5)
       Max divergence:  0.32E+01 at (   8,  10,   1)
       Min divergence: -0.56E+00 at (   9,   9,   4)
       Max VN number:   0.51E+00 at (   8,   8,  10)
       Total Heat Release Rate:            151.067 kW
       Radiation Loss to Boundaries:       -69.008 kW
 
       Time Step    3600   February 19, 2020  19:35:48
       Step Size:    0.546E-01 s, Total Time:     194.22 s
       Pressure Iterations:      2
       Maximum Velocity Error:  0.90E-01 on Mesh   1 at (   6  11   3)
       Maximum Pressure Error:  0.29E+02 on Mesh   1 at (   7  11   7)
       ScaRC: iterations     1, residual  0.56E-12, convergence rate   0.37E-14
       ---------------------------------------------------------------
       Max CFL number:  0.80E+00 at (   7,  13,   7)
       Max divergence:  0.10E+01 at (   8,  12,   7)
       Min divergence: -0.32E+00 at (   8,  13,  10)
       Max VN number:   0.54E+00 at (   7,  13,   9)
       Total Heat Release Rate:             59.686 kW
       Radiation Loss to Boundaries:       -46.880 kW
 
       Time Step    3700   February 19, 2020  19:35:52
       Step Size:    0.568E-01 s, Total Time:     200.29 s
       Pressure Iterations:      3
       Maximum Velocity Error:  0.68E-01 on Mesh   1 at (   6  11   3)
       Maximum Pressure Error:  0.49E+02 on Mesh   1 at (   7  10   7)
       ScaRC: iterations     1, residual  0.52E-12, convergence rate   0.43E-14
       ---------------------------------------------------------------
       Max CFL number:  0.94E+00 at (   7,  10,   6)
       Max divergence:  0.26E+01 at (   7,  11,   4)
       Min divergence: -0.47E+00 at (   8,  11,   4)
       Max VN number:   0.67E+00 at (   7,  10,   7)
       Total Heat Release Rate:            116.997 kW
       Radiation Loss to Boundaries:       -61.081 kW
 
       Time Step    3800   February 19, 2020  19:35:56
       Step Size:    0.793E-01 s, Total Time:     207.25 s
       Pressure Iterations:      1
       Maximum Velocity Error:  0.56E-01 on Mesh   1 at (   6  10   6)
       Maximum Pressure Error:  0.10E+02 on Mesh   1 at (   9  12   1)
       ScaRC: iterations     1, residual  0.60E-12, convergence rate   0.28E-14
       ---------------------------------------------------------------
       Max CFL number:  0.96E+00 at (   9,  12,   6)
       Max divergence:  0.19E+01 at (  21,  11,   1)
       Min divergence: -0.37E+00 at (   7,  12,   6)
       Max VN number:   0.48E+00 at (   9,  13,  10)
       Total Heat Release Rate:            147.029 kW
       Radiation Loss to Boundaries:       -64.309 kW
 
       Time Step    3900   February 19, 2020  19:35:59
       Step Size:    0.580E-01 s, Total Time:     212.08 s
       Pressure Iterations:      2
       Maximum Velocity Error:  0.87E-01 on Mesh   1 at (   6  11   3)
       Maximum Pressure Error:  0.24E+03 on Mesh   1 at (   9  11   2)
       ScaRC: iterations     1, residual  0.57E-12, convergence rate   0.41E-14
       ---------------------------------------------------------------
       Max CFL number:  0.81E+00 at (  21,  11,  15)
       Max divergence:  0.48E+01 at (   8,   9,   1)
       Min divergence: -0.33E+00 at (   8,  14,   3)
       Max VN number:   0.39E+00 at (   7,  10,   1)
       Total Heat Release Rate:            216.123 kW
       Radiation Loss to Boundaries:       -90.837 kW
 
       Time Step    4000   February 19, 2020  19:36:04
       Step Size:    0.720E-01 s, Total Time:     218.51 s
       Pressure Iterations:      2
       Maximum Velocity Error:  0.61E-01 on Mesh   1 at (   6  11   3)
       Maximum Pressure Error:  0.19E+02 on Mesh   1 at (   7   9  10)
       ScaRC: iterations     1, residual  0.41E-12, convergence rate   0.42E-14
       ---------------------------------------------------------------
       Max CFL number:  0.85E+00 at (   7,  11,  10)
       Max divergence:  0.10E+01 at (   7,   9,   5)
       Min divergence: -0.24E+00 at (  18,  12,  10)
       Max VN number:   0.51E+00 at (  19,   6,   9)
       Total Heat Release Rate:             76.012 kW
       Radiation Loss to Boundaries:       -50.313 kW
 
       Time Step    4100   February 19, 2020  19:36:08
       Step Size:    0.674E-01 s, Total Time:     224.41 s
       Pressure Iterations:      2
       Maximum Velocity Error:  0.43E-01 on Mesh   1 at (   6  11   2)
       Maximum Pressure Error:  0.19E+02 on Mesh   1 at (   8  11   2)
       ScaRC: iterations     1, residual  0.16E-12, convergence rate   0.32E-14
       ---------------------------------------------------------------
       Max CFL number:  0.85E+00 at (  21,  11,  13)
       Max divergence:  0.28E+01 at (   7,  10,   5)
       Min divergence: -0.27E+00 at (   8,   9,   7)
       Max VN number:   0.33E+00 at (  21,  12,  12)
       Total Heat Release Rate:            131.065 kW
       Radiation Loss to Boundaries:       -58.364 kW
 
       Time Step    4200   February 19, 2020  19:36:12
       Step Size:    0.656E-01 s, Total Time:     231.31 s
       Pressure Iterations:      4
       Maximum Velocity Error:  0.62E-01 on Mesh   1 at (   6  10   3)
       Maximum Pressure Error:  0.67E+02 on Mesh   1 at (   7  11   7)
       ScaRC: iterations     1, residual  0.49E-12, convergence rate   0.45E-14
       ---------------------------------------------------------------
       Max CFL number:  0.10E+01 at (  21,  12,   9)
       Max divergence:  0.22E+01 at (   7,  10,   4)
       Min divergence: -0.30E+00 at (  21,  12,  12)
       Max VN number:   0.41E+00 at (  21,  12,  12)
       Total Heat Release Rate:            155.694 kW
       Radiation Loss to Boundaries:       -66.380 kW
 
       Time Step    4300   February 19, 2020  19:36:15
       Step Size:    0.371E-01 s, Total Time:     236.13 s
       Pressure Iterations:      2
       Maximum Velocity Error:  0.26E-01 on Mesh   1 at (   6   9   1)
       Maximum Pressure Error:  0.65E+02 on Mesh   1 at (   7   9   1)
       ScaRC: iterations     1, residual  0.24E-12, convergence rate   0.48E-14
       ---------------------------------------------------------------
       Max CFL number:  0.89E+00 at (  21,  12,  12)
       Max divergence:  0.25E+01 at (  21,   9,   1)
       Min divergence: -0.67E+00 at (  21,  12,  12)
       Max VN number:   0.36E+00 at (  21,  12,  12)
       Total Heat Release Rate:            168.457 kW
       Radiation Loss to Boundaries:       -68.304 kW
 
       Time Step    4400   February 19, 2020  19:36:19
       Step Size:    0.543E-01 s, Total Time:     240.60 s
       Pressure Iterations:      2
       Maximum Velocity Error:  0.61E-01 on Mesh   1 at (   6  10   3)
       Maximum Pressure Error:  0.15E+02 on Mesh   1 at (   7  11   6)
       ScaRC: iterations     1, residual  0.43E-12, convergence rate   0.39E-14
       ---------------------------------------------------------------
       Max CFL number:  0.87E+00 at (  21,  10,  13)
       Max divergence:  0.19E+01 at (   8,  10,   5)
       Min divergence: -0.25E+00 at (   8,  13,  10)
       Max VN number:   0.37E+00 at (  19,  15,   8)
       Total Heat Release Rate:             95.855 kW
       Radiation Loss to Boundaries:       -53.197 kW
 
       Time Step    4500   February 19, 2020  19:36:23
       Step Size:    0.494E-01 s, Total Time:     246.30 s
       Pressure Iterations:      1
       Maximum Velocity Error:  0.96E-01 on Mesh   1 at (   6  13   4)
       Maximum Pressure Error:  0.13E+02 on Mesh   1 at (   7  11   2)
       ScaRC: iterations     1, residual  0.19E-11, convergence rate   0.62E-14
       ---------------------------------------------------------------
       Max CFL number:  0.83E+00 at (  21,  11,  12)
       Max divergence:  0.20E+01 at (  21,  12,   1)
       Min divergence: -0.29E+00 at (   8,  13,   6)
       Max VN number:   0.32E+00 at (  21,  12,  12)
       Total Heat Release Rate:            162.422 kW
       Radiation Loss to Boundaries:       -61.744 kW
 
       Time Step    4600   February 19, 2020  19:36:27
       Step Size:    0.523E-01 s, Total Time:     250.75 s
       Pressure Iterations:      2
       Maximum Velocity Error:  0.35E-01 on Mesh   1 at (   6  10   7)
       Maximum Pressure Error:  0.14E+02 on Mesh   1 at (   7   9   3)
       ScaRC: iterations     1, residual  0.30E-12, convergence rate   0.41E-14
       ---------------------------------------------------------------
       Max CFL number:  0.83E+00 at (  21,  11,  16)
       Max divergence:  0.46E+01 at (   8,   9,   3)
       Min divergence: -0.21E+00 at (  21,  12,  12)
       Max VN number:   0.32E+00 at (   7,   9,   3)
       Total Heat Release Rate:            125.293 kW
       Radiation Loss to Boundaries:       -52.680 kW
 
       Time Step    4700   February 19, 2020  19:36:31
       Step Size:    0.417E-01 s, Total Time:     256.96 s
       Pressure Iterations:      1
       Maximum Velocity Error:  0.77E-01 on Mesh   1 at (   6  11   7)
       Maximum Pressure Error:  0.32E+02 on Mesh   1 at (   8  11   3)
       ScaRC: iterations     1, residual  0.27E-11, convergence rate   0.54E-14
       ---------------------------------------------------------------
       Max CFL number:  0.92E+00 at (  21,  10,  12)
       Max divergence:  0.43E+01 at (  21,  10,   1)
       Min divergence: -0.72E+00 at (  21,  10,  12)
       Max VN number:   0.34E+00 at (  21,  10,  12)
       Total Heat Release Rate:            265.372 kW
       Radiation Loss to Boundaries:       -87.571 kW
 
       Time Step    4800   February 19, 2020  19:36:35
       Step Size:    0.496E-01 s, Total Time:     261.28 s
       Pressure Iterations:      2
       Maximum Velocity Error:  0.52E-01 on Mesh   1 at (   6  11   3)
       Maximum Pressure Error:  0.87E+01 on Mesh   1 at (   8  12   6)
       ScaRC: iterations     1, residual  0.41E-12, convergence rate   0.41E-14
       ---------------------------------------------------------------
       Max CFL number:  0.89E+00 at (  21,  12,  12)
       Max divergence:  0.25E+01 at (   7,  11,   6)
       Min divergence: -0.41E+00 at (  21,  12,  12)
       Max VN number:   0.36E+00 at (  21,  12,  12)
       Total Heat Release Rate:            161.898 kW
       Radiation Loss to Boundaries:       -59.147 kW
 
       Time Step    4900   February 19, 2020  19:36:39
       Step Size:    0.479E-01 s, Total Time:     266.75 s
       Pressure Iterations:      1
       Maximum Velocity Error:  0.89E-01 on Mesh   1 at (  20  10  11)
       Maximum Pressure Error:  0.20E+02 on Mesh   1 at (   8   9   5)
       ScaRC: iterations     1, residual  0.96E-12, convergence rate   0.27E-14
       ---------------------------------------------------------------
       Max CFL number:  0.93E+00 at (  21,  11,  12)
       Max divergence:  0.19E+01 at (   7,  12,   3)
       Min divergence: -0.42E+00 at (  21,  10,  12)
       Max VN number:   0.35E+00 at (  21,  12,  12)
       Total Heat Release Rate:            116.870 kW
       Radiation Loss to Boundaries:       -53.562 kW
 
       Time Step    5000   February 19, 2020  19:36:43
       Step Size:    0.427E-01 s, Total Time:     271.53 s
       Pressure Iterations:      1
       Maximum Velocity Error:  0.58E-01 on Mesh   1 at (   6  10   7)
       Maximum Pressure Error:  0.22E+02 on Mesh   1 at (   7   9   3)
       ScaRC: iterations     1, residual  0.12E-11, convergence rate   0.37E-14
       ---------------------------------------------------------------
       Max CFL number:  0.85E+00 at (  21,  10,  12)
       Max divergence:  0.17E+01 at (   8,  11,   4)
       Min divergence: -0.50E+00 at (  21,  10,  12)
       Max VN number:   0.34E+00 at (  21,  10,  12)
       Total Heat Release Rate:            114.906 kW
       Radiation Loss to Boundaries:       -53.916 kW
 
       Time Step    5100   February 19, 2020  19:36:47
       Step Size:    0.506E-01 s, Total Time:     277.42 s
       Pressure Iterations:      2
       Maximum Velocity Error:  0.68E-01 on Mesh   1 at (   6  10   1)
       Maximum Pressure Error:  0.42E+02 on Mesh   1 at (   7  10   1)
       ScaRC: iterations     1, residual  0.42E-12, convergence rate   0.34E-14
       ---------------------------------------------------------------
       Max CFL number:  0.90E+00 at (   8,  10,   5)
       Max divergence:  0.53E+01 at (   8,  10,   5)
       Min divergence: -0.54E+00 at (   8,   8,   7)
       Max VN number:   0.39E+00 at (   7,  11,   2)
       Total Heat Release Rate:            195.620 kW
       Radiation Loss to Boundaries:       -64.374 kW
 
       Time Step    5200   February 19, 2020  19:36:51
       Step Size:    0.559E-01 s, Total Time:     281.61 s
       Pressure Iterations:      2
       Maximum Velocity Error:  0.74E-01 on Mesh   1 at (   6  10   1)
       Maximum Pressure Error:  0.23E+03 on Mesh   1 at (   8  10   1)
       ScaRC: iterations     1, residual  0.51E-12, convergence rate   0.53E-14
       ---------------------------------------------------------------
       Max CFL number:  0.84E+00 at (  10,  11,   4)
       Max divergence:  0.43E+01 at (   9,  10,   3)
       Min divergence: -0.70E+00 at (   8,  10,   1)
       Max VN number:   0.39E+00 at (   9,  11,   5)
       Total Heat Release Rate:            266.195 kW
       Radiation Loss to Boundaries:      -100.801 kW
 
       Time Step    5300   February 19, 2020  19:36:55
       Step Size:    0.559E-01 s, Total Time:     286.04 s
       Pressure Iterations:      4
       Maximum Velocity Error:  0.90E-01 on Mesh   1 at (   6  11   3)
       Maximum Pressure Error:  0.81E+02 on Mesh   1 at (   7  10   6)
       ScaRC: iterations     1, residual  0.79E-12, convergence rate   0.44E-14
       ---------------------------------------------------------------
       Max CFL number:  0.87E+00 at (  21,  11,  15)
       Max divergence:  0.33E+01 at (  10,  10,   5)
       Min divergence: -0.57E+00 at (   8,  10,   3)
       Max VN number:   0.45E+00 at (   5,  11,   3)
       Total Heat Release Rate:            140.561 kW
       Radiation Loss to Boundaries:       -49.386 kW
 
       Time Step    5400   February 19, 2020  19:36:59
       Step Size:    0.487E-01 s, Total Time:     290.52 s
       Pressure Iterations:      2
       Maximum Velocity Error:  0.24E-01 on Mesh   1 at (   6  11   6)
       Maximum Pressure Error:  0.64E+02 on Mesh   1 at (   7   9   2)
       ScaRC: iterations     1, residual  0.23E-12, convergence rate   0.30E-14
       ---------------------------------------------------------------
       Max CFL number:  0.85E+00 at (   8,  11,   6)
       Max divergence:  0.40E+01 at (   7,  10,   2)
       Min divergence: -0.69E+00 at (   7,   9,   2)
       Max VN number:   0.49E+00 at (   9,   8,  10)
       Total Heat Release Rate:            158.874 kW
       Radiation Loss to Boundaries:       -68.649 kW
 
       Time Step    5500   February 19, 2020  19:37:03
       Step Size:    0.475E-01 s, Total Time:     295.99 s
       Pressure Iterations:      1
       Maximum Velocity Error:  0.87E-01 on Mesh   1 at (   6  11   2)
       Maximum Pressure Error:  0.87E+01 on Mesh   1 at (   8  11   5)
       ScaRC: iterations     1, residual  0.18E-11, convergence rate   0.61E-14
       ---------------------------------------------------------------
       Max CFL number:  0.88E+00 at (  21,  10,  13)
       Max divergence:  0.30E+01 at (   8,  12,   4)
       Min divergence: -0.38E+00 at (  21,  10,  12)
       Max VN number:   0.33E+00 at (  21,  12,  12)
       Total Heat Release Rate:            145.356 kW
       Radiation Loss to Boundaries:       -65.382 kW
 
       Time Step    5600   February 19, 2020  19:37:07
       Step Size:    0.600E-01 s, Total Time:     301.17 s
       Pressure Iterations:      1
       Maximum Velocity Error:  0.54E-01 on Mesh   1 at (  19  16   9)
       Maximum Pressure Error:  0.14E+02 on Mesh   1 at (  19  15   9)
       ScaRC: iterations     1, residual  0.71E-12, convergence rate   0.26E-14
       ---------------------------------------------------------------
       Max CFL number:  0.85E+00 at (  21,  10,  15)
       Max divergence:  0.15E+01 at (   7,   9,   6)
       Min divergence: -0.28E+00 at (   7,  10,   9)
       Max VN number:   0.39E+00 at (  19,  15,   9)
       Total Heat Release Rate:             86.561 kW
       Radiation Loss to Boundaries:       -56.634 kW
 
       Time Step    5700   February 19, 2020  19:37:11
       Step Size:    0.483E-01 s, Total Time:     306.68 s
       Pressure Iterations:      2
       Maximum Velocity Error:  0.65E-01 on Mesh   1 at (   6  10   7)
       Maximum Pressure Error:  0.58E+02 on Mesh   1 at (   8  11   1)
       ScaRC: iterations     1, residual  0.57E-12, convergence rate   0.42E-14
       ---------------------------------------------------------------
       Max CFL number:  0.92E+00 at (  21,  10,  13)
       Max divergence:  0.22E+01 at (  21,  12,   1)
       Min divergence: -0.40E+00 at (  21,  10,  12)
       Max VN number:   0.34E+00 at (  21,   9,  12)
       Total Heat Release Rate:            152.317 kW
       Radiation Loss to Boundaries:       -67.686 kW
 
       Time Step    5800   February 19, 2020  19:37:15
       Step Size:    0.514E-01 s, Total Time:     311.02 s
       Pressure Iterations:      2
       Maximum Velocity Error:  0.48E-01 on Mesh   1 at (   6  12   6)
       Maximum Pressure Error:  0.20E+02 on Mesh   1 at (   7  12   6)
       ScaRC: iterations     1, residual  0.28E-12, convergence rate   0.45E-14
       ---------------------------------------------------------------
       Max CFL number:  0.87E+00 at (  21,  10,  13)
       Max divergence:  0.22E+01 at (   7,  12,   6)
       Min divergence: -0.28E+00 at (  21,  10,  12)
       Max VN number:   0.39E+00 at (   7,  12,  10)
       Total Heat Release Rate:            102.063 kW
       Radiation Loss to Boundaries:       -51.736 kW
 
       Time Step    5900   February 19, 2020  19:37:19
       Step Size:    0.925E-01 s, Total Time:     316.92 s
       Pressure Iterations:      2
       Maximum Velocity Error:  0.99E-01 on Mesh   1 at (   6  11   2)
       Maximum Pressure Error:  0.16E+03 on Mesh   1 at (   7  10   3)
       ScaRC: iterations     1, residual  0.50E-12, convergence rate   0.40E-14
       ---------------------------------------------------------------
       Max CFL number:  0.92E+00 at (   8,  11,   5)
       Max divergence:  0.31E+01 at (   8,  11,   3)
       Min divergence: -0.45E+00 at (   7,   9,   6)
       Max VN number:   0.45E+00 at (   8,  11,   5)
       Total Heat Release Rate:            104.704 kW
       Radiation Loss to Boundaries:       -53.995 kW
 
       Time Step    6000   February 19, 2020  19:37:23
       Step Size:    0.468E-01 s, Total Time:     322.60 s
       Pressure Iterations:      2
       Maximum Velocity Error:  0.82E-01 on Mesh   1 at (   6  10   2)
       Maximum Pressure Error:  0.63E+02 on Mesh   1 at (   7  10   1)
       ScaRC: iterations     1, residual  0.50E-12, convergence rate   0.37E-14
       ---------------------------------------------------------------
       Max CFL number:  0.73E+00 at (   8,  11,   3)
       Max divergence:  0.63E+01 at (   7,  10,   2)
       Min divergence: -0.64E+00 at (   8,  13,   5)
       Max VN number:   0.42E+00 at (   7,  10,   6)
       Total Heat Release Rate:            162.908 kW
       Radiation Loss to Boundaries:       -63.372 kW
 
       Time Step    6100   February 19, 2020  19:37:27
       Step Size:    0.538E-01 s, Total Time:     327.75 s
       Pressure Iterations:      1
       Maximum Velocity Error:  0.76E-01 on Mesh   1 at (   6  10   6)
       Maximum Pressure Error:  0.26E+02 on Mesh   1 at (  12  15  10)
       ScaRC: iterations     1, residual  0.14E-11, convergence rate   0.40E-14
       ---------------------------------------------------------------
       Max CFL number:  0.70E+00 at (   7,   9,   7)
       Max divergence:  0.13E+01 at (   8,  11,   7)
       Min divergence: -0.61E+00 at (   7,  11,   9)
       Max VN number:   0.50E+00 at (  19,   6,   9)
       Total Heat Release Rate:            103.210 kW
       Radiation Loss to Boundaries:       -60.409 kW
 
       Time Step    6200   February 19, 2020  19:37:31
       Step Size:    0.439E-01 s, Total Time:     332.84 s
       Pressure Iterations:      2
       Maximum Velocity Error:  0.67E-01 on Mesh   1 at (   6  12   2)
       Maximum Pressure Error:  0.83E+02 on Mesh   1 at (   7  12   2)
       ScaRC: iterations     1, residual  0.29E-12, convergence rate   0.27E-14
       ---------------------------------------------------------------
       Max CFL number:  0.83E+00 at (  21,  10,  13)
       Max divergence:  0.41E+01 at (   7,  10,   4)
       Min divergence: -0.45E+00 at (  21,  10,  12)
       Max VN number:   0.32E+00 at (  21,  10,  12)
       Total Heat Release Rate:            165.833 kW
       Radiation Loss to Boundaries:       -73.413 kW
 
       Time Step    6300   February 19, 2020  19:37:35
       Step Size:    0.351E-01 s, Total Time:     338.01 s
       Pressure Iterations:      2
       Maximum Velocity Error:  0.64E-01 on Mesh   1 at (   6  10   1)
       Maximum Pressure Error:  0.51E+02 on Mesh   1 at (   7  12   5)
       ScaRC: iterations     1, residual  0.39E-12, convergence rate   0.29E-14
       ---------------------------------------------------------------
       Max CFL number:  0.85E+00 at (   8,  10,   6)
       Max divergence:  0.32E+01 at (   8,  10,   6)
       Min divergence: -0.58E+00 at (   7,  12,   5)
       Max VN number:   0.30E+00 at (   8,  12,  10)
       Total Heat Release Rate:            127.246 kW
       Radiation Loss to Boundaries:       -66.409 kW
 
       Time Step    6400   February 19, 2020  19:37:39
       Step Size:    0.391E-01 s, Total Time:     343.31 s
       Pressure Iterations:      1
       Maximum Velocity Error:  0.90E-01 on Mesh   1 at (   6   7   7)
       Maximum Pressure Error:  0.20E+02 on Mesh   1 at (   7   6  10)
       ScaRC: iterations     1, residual  0.14E-11, convergence rate   0.44E-14
       ---------------------------------------------------------------
       Max CFL number:  0.86E+00 at (  21,  10,  12)
       Max divergence:  0.29E+01 at (   7,   9,   5)
       Min divergence: -0.66E+00 at (  21,  12,  12)
       Max VN number:   0.35E+00 at (   8,  10,  10)
       Total Heat Release Rate:            196.245 kW
       Radiation Loss to Boundaries:       -79.488 kW
 
       Time Step    6500   February 19, 2020  19:37:43
       Step Size:    0.609E-01 s, Total Time:     348.26 s
       Pressure Iterations:      2
       Maximum Velocity Error:  0.62E-01 on Mesh   1 at (   6  11   6)
       Maximum Pressure Error:  0.27E+02 on Mesh   1 at (   7  15  10)
       ScaRC: iterations     1, residual  0.42E-12, convergence rate   0.38E-14
       ---------------------------------------------------------------
       Max CFL number:  0.84E+00 at (   7,  11,   7)
       Max divergence:  0.29E+01 at (   7,  11,   5)
       Min divergence: -0.36E+00 at (   8,  10,   8)
       Max VN number:   0.68E+00 at (   7,  11,   8)
       Total Heat Release Rate:            133.746 kW
       Radiation Loss to Boundaries:       -59.343 kW
 
       Time Step    6600   February 19, 2020  19:37:47
       Step Size:    0.315E-01 s, Total Time:     353.63 s
       Pressure Iterations:      1
       Maximum Velocity Error:  0.63E-01 on Mesh   1 at (   6  13   4)
       Maximum Pressure Error:  0.11E+02 on Mesh   1 at (   9  11   4)
       ScaRC: iterations     1, residual  0.63E-12, convergence rate   0.19E-14
       ---------------------------------------------------------------
       Max CFL number:  0.84E+00 at (  21,  10,  12)
       Max divergence:  0.26E+01 at (  21,   9,   1)
       Min divergence: -0.11E+01 at (  21,  10,  12)
       Max VN number:   0.31E+00 at (  21,  10,  12)
       Total Heat Release Rate:            170.032 kW
       Radiation Loss to Boundaries:       -70.113 kW
 
       Time Step    6700   February 19, 2020  19:37:51
       Step Size:    0.592E-01 s, Total Time:     358.56 s
       Pressure Iterations:      3
       Maximum Velocity Error:  0.61E-01 on Mesh   1 at (   6  10   6)
       Maximum Pressure Error:  0.11E+03 on Mesh   1 at (   7   8   1)
       ScaRC: iterations     1, residual  0.33E-12, convergence rate   0.32E-14
       ---------------------------------------------------------------
       Max CFL number:  0.86E+00 at (  21,  10,  16)
       Max divergence:  0.50E+01 at (   8,  11,   1)
       Min divergence: -0.33E+00 at (   9,   9,   4)
       Max VN number:   0.53E+00 at (   7,  10,   1)
       Total Heat Release Rate:            158.615 kW
       Radiation Loss to Boundaries:       -78.443 kW
 
       Time Step    6800   February 19, 2020  19:37:55
       Step Size:    0.424E-01 s, Total Time:     363.98 s
       Pressure Iterations:      5
       Maximum Velocity Error:  0.78E-01 on Mesh   1 at (   6  10   2)
       Maximum Pressure Error:  0.15E+03 on Mesh   1 at (   7  12   6)
       ScaRC: iterations     1, residual  0.11E-11, convergence rate   0.48E-14
       ---------------------------------------------------------------
       Max CFL number:  0.62E+00 at (   7,  12,   6)
       Max divergence:  0.90E+01 at (   7,  11,   6)
       Min divergence: -0.53E+00 at (   7,  13,   6)
       Max VN number:   0.39E+00 at (   5,  10,   3)
       Total Heat Release Rate:            181.438 kW
       Radiation Loss to Boundaries:       -71.415 kW
 
       Time Step    6900   February 19, 2020  19:37:59
       Step Size:    0.602E-01 s, Total Time:     369.99 s
       Pressure Iterations:      5
       Maximum Velocity Error:  0.52E-01 on Mesh   1 at (   6  12   1)
       Maximum Pressure Error:  0.33E+03 on Mesh   1 at (   7  12   1)
       ScaRC: iterations     1, residual  0.31E-12, convergence rate   0.52E-14
       ---------------------------------------------------------------
       Max CFL number:  0.80E+00 at (  21,  10,  15)
       Max divergence:  0.18E+01 at (   8,  12,   3)
       Min divergence: -0.90E+00 at (   8,  11,   2)
       Max VN number:   0.41E+00 at (   8,  11,   1)
       Total Heat Release Rate:            149.895 kW
       Radiation Loss to Boundaries:       -88.536 kW
 
       Time Step    7000   February 19, 2020  19:38:03
       Step Size:    0.473E-01 s, Total Time:     375.14 s
       Pressure Iterations:      2
       Maximum Velocity Error:  0.47E-01 on Mesh   1 at (   6  11   2)
       Maximum Pressure Error:  0.12E+03 on Mesh   1 at (   7  11   2)
       ScaRC: iterations     1, residual  0.26E-12, convergence rate   0.26E-14
       ---------------------------------------------------------------
       Max CFL number:  0.81E+00 at (   7,  12,   3)
       Max divergence:  0.20E+01 at (   7,   9,   6)
       Min divergence: -0.99E+00 at (   7,  11,   2)
       Max VN number:   0.59E+00 at (   7,   9,  10)
       Total Heat Release Rate:            139.220 kW
       Radiation Loss to Boundaries:       -64.742 kW
 
       Time Step    7100   February 19, 2020  19:38:07
       Step Size:    0.593E-01 s, Total Time:     379.79 s
       Pressure Iterations:      2
       Maximum Velocity Error:  0.27E-01 on Mesh   1 at (   6  10   2)
       Maximum Pressure Error:  0.49E+02 on Mesh   1 at (   7  10   2)
       ScaRC: iterations     1, residual  0.12E-12, convergence rate   0.25E-14
       ---------------------------------------------------------------
       Max CFL number:  0.97E+00 at (  10,   9,   7)
       Max divergence:  0.37E+01 at (  10,  10,   6)
       Min divergence: -0.76E+00 at (  10,   9,   8)
       Max VN number:   0.32E+00 at (  10,   9,   8)
       Total Heat Release Rate:            174.535 kW
       Radiation Loss to Boundaries:       -66.867 kW
 
       Time Step    7200   February 19, 2020  19:38:12
       Step Size:    0.214E-01 s, Total Time:     384.34 s
       Pressure Iterations:      8
       Maximum Velocity Error:  0.81E-01 on Mesh   1 at (   6  10   2)
       Maximum Pressure Error:  0.46E+03 on Mesh   1 at (   5  10   2)
       ScaRC: iterations     1, residual  0.39E-11, convergence rate   0.61E-14
       ---------------------------------------------------------------
       Max CFL number:  0.94E+00 at (   7,  11,   6)
       Max divergence:  0.28E+01 at (   7,   9,   7)
       Min divergence: -0.22E+01 at (   5,  10,   3)
[...]
       Step Size:    0.437E-01 s, Total Time:    1678.06 s
       Pressure Iterations:      1
       Maximum Velocity Error:  0.32E-01 on Mesh   1 at (   6  12   1)
       Maximum Pressure Error:  0.44E+02 on Mesh   1 at (   8  10   1)
       ScaRC: iterations     1, residual  0.50E-12, convergence rate   0.22E-14
       ---------------------------------------------------------------
       Max CFL number:  0.88E+00 at (  21,  10,  13)
       Max divergence:  0.25E+01 at (  21,   9,   1)
       Min divergence: -0.48E+00 at (  21,  10,  12)
       Max VN number:   0.35E+00 at (  21,   9,  12)
       Total Heat Release Rate:            209.655 kW
       Radiation Loss to Boundaries:       -79.011 kW
 
       Time Step   33400   February 19, 2020  19:55:58
       Step Size:    0.446E-01 s, Total Time:    1683.01 s
       Pressure Iterations:      2
       Maximum Velocity Error:  0.43E-01 on Mesh   1 at (   6  10   4)
       Maximum Pressure Error:  0.11E+03 on Mesh   1 at (   7  10   4)
       ScaRC: iterations     1, residual  0.28E-12, convergence rate   0.29E-14
       ---------------------------------------------------------------
       Max CFL number:  0.89E+00 at (   7,  10,   5)
       Max divergence:  0.33E+01 at (   8,  10,   6)
       Min divergence: -0.11E+01 at (   7,  10,   4)
       Max VN number:   0.43E+00 at (   7,  10,   7)
       Total Heat Release Rate:            133.286 kW
       Radiation Loss to Boundaries:       -64.827 kW
 
       Time Step   33500   February 19, 2020  19:56:01
       Step Size:    0.394E-01 s, Total Time:    1687.45 s
       Pressure Iterations:      1
       Maximum Velocity Error:  0.41E-01 on Mesh   1 at (   6  12   3)
       Maximum Pressure Error:  0.23E+02 on Mesh   1 at (  21  12   1)
       ScaRC: iterations     1, residual  0.62E-12, convergence rate   0.16E-14
       ---------------------------------------------------------------
       Max CFL number:  0.92E+00 at (  21,  11,  10)
       Max divergence:  0.51E+01 at (  21,  12,   1)
       Min divergence: -0.74E+00 at (  21,  11,  12)
       Max VN number:   0.33E+00 at (  21,  11,  12)
       Total Heat Release Rate:            291.811 kW
       Radiation Loss to Boundaries:       -99.286 kW
 
       Time Step   33600   February 19, 2020  19:56:05
       Step Size:    0.341E-01 s, Total Time:    1690.73 s
       Pressure Iterations:      2
       Maximum Velocity Error:  0.59E-01 on Mesh   1 at (   6  10   3)
       Maximum Pressure Error:  0.86E+02 on Mesh   1 at (   8  10   1)
       ScaRC: iterations     1, residual  0.65E-12, convergence rate   0.39E-14
       ---------------------------------------------------------------
       Max CFL number:  0.82E+00 at (  21,  11,  13)
       Max divergence:  0.54E+01 at (   8,  10,   4)
       Min divergence: -0.62E+00 at (  21,  11,  13)
       Max VN number:   0.30E+00 at (  21,  11,  12)
       Total Heat Release Rate:            194.713 kW
       Radiation Loss to Boundaries:       -71.821 kW
 
       Time Step   33700   February 19, 2020  19:56:09
       Step Size:    0.682E-01 s, Total Time:    1696.61 s
       Pressure Iterations:      2
       Maximum Velocity Error:  0.29E-01 on Mesh   1 at (   6  11   3)
       Maximum Pressure Error:  0.18E+02 on Mesh   1 at (   7  11   3)
       ScaRC: iterations     1, residual  0.13E-12, convergence rate   0.33E-14
       ---------------------------------------------------------------
       Max CFL number:  0.92E+00 at (  21,  11,  13)
       Max divergence:  0.14E+01 at (   8,  12,   5)
       Min divergence: -0.38E+00 at (   7,  11,   3)
       Max VN number:   0.38E+00 at (   8,  14,  10)
       Total Heat Release Rate:             99.448 kW
       Radiation Loss to Boundaries:       -50.853 kW
 
       Time Step   33800   February 19, 2020  19:56:12
       Step Size:    0.380E-01 s, Total Time:    1701.44 s
       Pressure Iterations:      2
       Maximum Velocity Error:  0.57E-01 on Mesh   1 at (   6  10   2)
       Maximum Pressure Error:  0.11E+02 on Mesh   1 at (   7  10   6)
       ScaRC: iterations     1, residual  0.54E-12, convergence rate   0.38E-14
       ---------------------------------------------------------------
       Max CFL number:  0.83E+00 at (  21,  10,  13)
       Max divergence:  0.26E+01 at (  21,  12,   1)
       Min divergence: -0.51E+00 at (  21,  11,  12)
       Max VN number:   0.32E+00 at (  21,   9,  12)
       Total Heat Release Rate:            198.771 kW
       Radiation Loss to Boundaries:       -78.340 kW
 
       Time Step   33900   February 19, 2020  19:56:16
       Step Size:    0.261E-01 s, Total Time:    1705.63 s
       Pressure Iterations:      6
       Maximum Velocity Error:  0.92E-01 on Mesh   1 at (   6  10   1)
       Maximum Pressure Error:  0.36E+03 on Mesh   1 at (   7  10   6)
       ScaRC: iterations     1, residual  0.28E-11, convergence rate   0.57E-14
       ---------------------------------------------------------------
       Max CFL number:  0.70E+00 at (   7,  10,   6)
       Max divergence:  0.58E+01 at (   7,  11,   6)
       Min divergence: -0.73E+00 at (   5,  11,   3)
       Max VN number:   0.41E+00 at (   7,  10,   6)
       Total Heat Release Rate:            153.527 kW
       Radiation Loss to Boundaries:       -62.675 kW
 
       Time Step   34000   February 19, 2020  19:56:20
       Step Size:    0.458E-01 s, Total Time:    1709.62 s
       Pressure Iterations:      2
       Maximum Velocity Error:  0.65E-01 on Mesh   1 at (   6  10   3)
       Maximum Pressure Error:  0.11E+03 on Mesh   1 at (   8  11   1)
       ScaRC: iterations     1, residual  0.51E-12, convergence rate   0.37E-14
       ---------------------------------------------------------------
       Max CFL number:  0.90E+00 at (  21,  11,  12)
       Max divergence:  0.39E+01 at (  21,   9,   1)
       Min divergence: -0.45E+00 at (  21,  11,  12)
       Max VN number:   0.33E+00 at (  21,  11,  12)
       Total Heat Release Rate:            272.413 kW
       Radiation Loss to Boundaries:       -97.598 kW
 
       Time Step   34100   February 19, 2020  19:56:24
       Step Size:    0.387E-01 s, Total Time:    1713.13 s
       Pressure Iterations:      1
       Maximum Velocity Error:  0.55E-01 on Mesh   1 at (   6   7   2)
       Maximum Pressure Error:  0.95E+01 on Mesh   1 at (   8  11   3)
       ScaRC: iterations     1, residual  0.61E-12, convergence rate   0.23E-14
       ---------------------------------------------------------------
       Max CFL number:  0.86E+00 at (  21,  10,  12)
       Max divergence:  0.17E+01 at (   7,   9,   3)
       Min divergence: -0.64E+00 at (  21,  10,  12)
       Max VN number:   0.32E+00 at (  21,  10,  12)
       Total Heat Release Rate:            153.433 kW
       Radiation Loss to Boundaries:       -60.942 kW
 
       Time Step   34200   February 19, 2020  19:56:27
       Step Size:    0.381E-01 s, Total Time:    1718.46 s
       Pressure Iterations:      5
       Maximum Velocity Error:  0.87E-01 on Mesh   1 at (   6  11   5)
       Maximum Pressure Error:  0.11E+03 on Mesh   1 at (   5  10   2)
       ScaRC: iterations     1, residual  0.16E-11, convergence rate   0.52E-14
       ---------------------------------------------------------------
       Max CFL number:  0.47E+00 at (   7,   9,   6)
       Max divergence:  0.41E+01 at (   7,   9,   2)
       Min divergence: -0.33E+00 at (   9,  10,   4)
       Max VN number:   0.72E+00 at (   7,  10,   7)
       Total Heat Release Rate:            195.146 kW
       Radiation Loss to Boundaries:       -91.470 kW
 
       Time Step   34300   February 19, 2020  19:56:31
       Step Size:    0.513E-01 s, Total Time:    1723.98 s
       Pressure Iterations:      1
       Maximum Velocity Error:  0.86E-01 on Mesh   1 at (   6  14   5)
       Maximum Pressure Error:  0.94E+02 on Mesh   1 at (   9  11   1)
       ScaRC: iterations     1, residual  0.13E-11, convergence rate   0.19E-14
       ---------------------------------------------------------------
       Max CFL number:  0.89E+00 at (   8,  12,   5)
       Max divergence:  0.37E+01 at (   8,  10,   1)
       Min divergence: -0.47E+00 at (   9,  11,   1)
       Max VN number:   0.38E+00 at (   9,  13,  10)
       Total Heat Release Rate:            194.898 kW
       Radiation Loss to Boundaries:       -70.965 kW
 
       Time Step   34400   February 19, 2020  19:56:35
       Step Size:    0.414E-01 s, Total Time:    1728.99 s
       Pressure Iterations:      5
       Maximum Velocity Error:  0.87E-01 on Mesh   1 at (   6  11   2)
       Maximum Pressure Error:  0.37E+03 on Mesh   1 at (   5  11   2)
       ScaRC: iterations     1, residual  0.12E-11, convergence rate   0.50E-14
       ---------------------------------------------------------------
       Max CFL number:  0.69E+00 at (   7,  11,   6)
       Max divergence:  0.46E+01 at (   7,  12,   6)
       Min divergence: -0.76E+00 at (   5,  10,   3)
       Max VN number:   0.56E+00 at (   7,  11,   7)
       Total Heat Release Rate:            162.928 kW
       Radiation Loss to Boundaries:       -66.886 kW
 
       Time Step   34500   February 19, 2020  19:56:38
       Step Size:    0.341E-01 s, Total Time:    1733.84 s
       Pressure Iterations:      1
       Maximum Velocity Error:  0.63E-01 on Mesh   1 at (   6  11   4)
       Maximum Pressure Error:  0.12E+02 on Mesh   1 at (   7  11   4)
       ScaRC: iterations     1, residual  0.66E-12, convergence rate   0.14E-14
       ---------------------------------------------------------------
       Max CFL number:  0.91E+00 at (  21,  10,  12)
       Max divergence:  0.47E+01 at (  21,  10,   1)
       Min divergence: -0.93E+00 at (  21,  10,  12)
       Max VN number:   0.34E+00 at (  21,   9,  12)
       Total Heat Release Rate:            248.431 kW
       Radiation Loss to Boundaries:       -82.488 kW
 
       Time Step   34600   February 19, 2020  19:56:42
       Step Size:    0.549E-01 s, Total Time:    1737.94 s
       Pressure Iterations:      2
       Maximum Velocity Error:  0.29E-01 on Mesh   1 at (   6  13   1)
       Maximum Pressure Error:  0.74E+02 on Mesh   1 at (   7  13   1)
       ScaRC: iterations     1, residual  0.95E-13, convergence rate   0.19E-14
       ---------------------------------------------------------------
       Max CFL number:  0.97E+00 at (   8,  13,   5)
       Max divergence:  0.50E+01 at (   7,  13,   1)
       Min divergence: -0.76E+00 at (   8,  13,   6)
       Max VN number:   0.32E+00 at (   9,  11,  10)
       Total Heat Release Rate:            189.090 kW
       Radiation Loss to Boundaries:       -71.163 kW
 
       Time Step   34700   February 19, 2020  19:56:45
       Step Size:    0.419E-01 s, Total Time:    1743.18 s
       Pressure Iterations:      3
       Maximum Velocity Error:  0.54E-01 on Mesh   1 at (   6  10   6)
       Maximum Pressure Error:  0.55E+02 on Mesh   1 at (   7  12  10)
       ScaRC: iterations     1, residual  0.46E-12, convergence rate   0.36E-14
       ---------------------------------------------------------------
       Max CFL number:  0.80E+00 at (   7,  12,   8)
       Max divergence:  0.32E+01 at (   7,  12,   6)
       Min divergence: -0.40E+00 at (   9,   9,  10)
       Max VN number:   0.39E+00 at (   7,  11,  10)
       Total Heat Release Rate:            145.586 kW
       Radiation Loss to Boundaries:       -66.175 kW
 
       Time Step   34800   February 19, 2020  19:56:49
       Step Size:    0.545E-01 s, Total Time:    1748.56 s
       Pressure Iterations:      2
       Maximum Velocity Error:  0.42E-01 on Mesh   1 at (   6  10   3)
       Maximum Pressure Error:  0.97E+01 on Mesh   1 at (   7   9   6)
       ScaRC: iterations     1, residual  0.30E-12, convergence rate   0.40E-14
       ---------------------------------------------------------------
       Max CFL number:  0.82E+00 at (  21,   9,  12)
       Max divergence:  0.20E+01 at (   7,   9,   6)
       Min divergence: -0.24E+00 at (  21,   9,  12)
       Max VN number:   0.37E+00 at (  19,   6,   8)
       Total Heat Release Rate:            120.540 kW
       Radiation Loss to Boundaries:       -59.694 kW
 
       Time Step   34900   February 19, 2020  19:56:53
       Step Size:    0.579E-01 s, Total Time:    1753.12 s
       Pressure Iterations:      3
       Maximum Velocity Error:  0.55E-01 on Mesh   1 at (   6  11   3)
       Maximum Pressure Error:  0.42E+02 on Mesh   1 at (   7  10   6)
       ScaRC: iterations     1, residual  0.39E-12, convergence rate   0.42E-14
       ---------------------------------------------------------------
       Max CFL number:  0.83E+00 at (  21,  10,  12)
       Max divergence:  0.11E+01 at (   7,  10,   6)
       Min divergence: -0.21E+00 at (  21,   9,  12)
       Max VN number:   0.33E+00 at (   5,  11,   3)
       Total Heat Release Rate:             77.402 kW
       Radiation Loss to Boundaries:       -53.531 kW
 
       Time Step   35000   February 19, 2020  19:56:57
       Step Size:    0.390E-01 s, Total Time:    1757.96 s
       Pressure Iterations:      2
       Maximum Velocity Error:  0.50E-01 on Mesh   1 at (   6  11   3)
       Maximum Pressure Error:  0.11E+02 on Mesh   1 at (   8  10   4)
       ScaRC: iterations     1, residual  0.48E-12, convergence rate   0.40E-14
       ---------------------------------------------------------------
       Max CFL number:  0.87E+00 at (  21,  12,  12)
       Max divergence:  0.25E+01 at (  21,  11,   1)
       Min divergence: -0.81E+00 at (  21,  12,  12)
       Max VN number:   0.37E+00 at (  21,  12,  12)
       Total Heat Release Rate:            145.256 kW
       Radiation Loss to Boundaries:       -65.573 kW
 
       Time Step   35100   February 19, 2020  19:57:00
       Step Size:    0.546E-01 s, Total Time:    1762.41 s
       Pressure Iterations:      2
       Maximum Velocity Error:  0.96E-01 on Mesh   1 at (   6  11   3)
       Maximum Pressure Error:  0.32E+02 on Mesh   1 at (   7  10   4)
       ScaRC: iterations     1, residual  0.69E-12, convergence rate   0.41E-14
       ---------------------------------------------------------------
       Max CFL number:  0.86E+00 at (  21,   9,  13)
       Max divergence:  0.11E+01 at (   7,   8,   6)
       Min divergence: -0.29E+00 at (   8,  10,  10)
       Max VN number:   0.34E+00 at (  21,  12,  12)
       Total Heat Release Rate:             90.464 kW
       Radiation Loss to Boundaries:       -57.346 kW
 
       Time Step   35200   February 19, 2020  19:57:04
       Step Size:    0.517E-01 s, Total Time:    1767.16 s
       Pressure Iterations:      2
       Maximum Velocity Error:  0.55E-01 on Mesh   1 at (   6  11   3)
       Maximum Pressure Error:  0.15E+02 on Mesh   1 at (   7  12   3)
       ScaRC: iterations     1, residual  0.41E-12, convergence rate   0.40E-14
       ---------------------------------------------------------------
       Max CFL number:  0.82E+00 at (  21,   9,  12)
       Max divergence:  0.12E+01 at (   7,  11,   2)
       Min divergence: -0.47E+00 at (   8,  11,   2)
       Max VN number:   0.34E+00 at (  21,   9,  12)
       Total Heat Release Rate:            121.346 kW
       Radiation Loss to Boundaries:       -64.319 kW
 
       Time Step   35300   February 19, 2020  19:57:07
       Step Size:    0.422E-01 s, Total Time:    1773.65 s
       Pressure Iterations:      2
       Maximum Velocity Error:  0.30E-01 on Mesh   1 at (  20  10  11)
       Maximum Pressure Error:  0.14E+02 on Mesh   1 at (  21  11  11)
       ScaRC: iterations     1, residual  0.30E-12, convergence rate   0.35E-14
       ---------------------------------------------------------------
       Max CFL number:  0.93E+00 at (  21,   9,  12)
       Max divergence:  0.37E+01 at (  21,  12,   1)
       Min divergence: -0.10E+01 at (  21,   9,  12)
       Max VN number:   0.40E+00 at (  21,   9,  12)
       Total Heat Release Rate:            235.019 kW
       Radiation Loss to Boundaries:       -86.832 kW
 
       Time Step   35400   February 19, 2020  19:57:11
       Step Size:    0.482E-01 s, Total Time:    1777.56 s
       Pressure Iterations:      2
       Maximum Velocity Error:  0.62E-01 on Mesh   1 at (   6  11   2)
       Maximum Pressure Error:  0.28E+02 on Mesh   1 at (   7  10   1)
       ScaRC: iterations     1, residual  0.44E-12, convergence rate   0.38E-14
       ---------------------------------------------------------------
       Max CFL number:  0.88E+00 at (   8,  10,   7)
       Max divergence:  0.23E+01 at (   7,  11,   3)
       Min divergence: -0.43E+00 at (   8,   9,   5)
       Max VN number:   0.50E+00 at (   8,  10,  10)
       Total Heat Release Rate:            145.590 kW
       Radiation Loss to Boundaries:       -54.053 kW
 
       Time Step   35500   February 19, 2020  19:57:14
       Step Size:    0.375E-01 s, Total Time:    1783.17 s
       Pressure Iterations:      1
       Maximum Velocity Error:  0.69E-01 on Mesh   1 at (  20  11  10)
       Maximum Pressure Error:  0.11E+02 on Mesh   1 at (  21  11  14)
       ScaRC: iterations     1, residual  0.90E-12, convergence rate   0.16E-14
       ---------------------------------------------------------------
       Max CFL number:  0.93E+00 at (  21,  11,  13)
       Max divergence:  0.30E+01 at (  21,   9,   1)
       Min divergence: -0.43E+00 at (  21,  11,  13)
       Max VN number:   0.34E+00 at (  21,  11,  12)
       Total Heat Release Rate:            156.608 kW
       Radiation Loss to Boundaries:       -65.925 kW
 
       Time Step   35600   February 19, 2020  19:57:18
       Step Size:    0.439E-01 s, Total Time:    1787.76 s
       Pressure Iterations:      2
       Maximum Velocity Error:  0.51E-01 on Mesh   1 at (   6  11   3)
       Maximum Pressure Error:  0.10E+02 on Mesh   1 at (   7  12   9)
       ScaRC: iterations     1, residual  0.47E-12, convergence rate   0.43E-14
       ---------------------------------------------------------------
       Max CFL number:  0.83E+00 at (  21,  10,  12)
       Max divergence:  0.22E+01 at (   8,  12,   7)
       Min divergence: -0.43E+00 at (  21,  10,  12)
       Max VN number:   0.33E+00 at (   9,  12,  10)
       Total Heat Release Rate:            135.124 kW
       Radiation Loss to Boundaries:       -58.411 kW
 
       Time Step   35700   February 19, 2020  19:57:21
       Step Size:    0.806E-01 s, Total Time:    1794.92 s
       Pressure Iterations:      3
       Maximum Velocity Error:  0.63E-01 on Mesh   1 at (   6  11   2)
       Maximum Pressure Error:  0.22E+02 on Mesh   1 at (   7   8   4)
       ScaRC: iterations     1, residual  0.30E-12, convergence rate   0.41E-14
       ---------------------------------------------------------------
       Max CFL number:  0.88E+00 at (  21,  12,  12)
       Max divergence:  0.23E+01 at (   9,  12,   5)
       Min divergence: -0.36E+00 at (   8,  10,   5)
       Max VN number:   0.50E+00 at (   7,  11,   6)
       Total Heat Release Rate:            121.482 kW
       Radiation Loss to Boundaries:       -60.808 kW
 
       Time Step   35773   February 19, 2020  19:57:24
       Step Size:    0.533E-01 s, Total Time:    1800.00 s
       Pressure Iterations:      2
       Maximum Velocity Error:  0.68E-01 on Mesh   1 at (   6  10   6)
       Maximum Pressure Error:  0.26E+02 on Mesh   1 at (   7  10   2)
       ScaRC: iterations     1, residual  0.50E-12, convergence rate   0.39E-14
       ---------------------------------------------------------------
       Max CFL number:  0.88E+00 at (  21,  10,  13)
       Max divergence:  0.18E+01 at (   8,   9,   5)
       Min divergence: -0.37E+00 at (   7,   9,   5)
       Max VN number:   0.47E+00 at (   7,  10,   4)
       Total Heat Release Rate:            152.549 kW
       Radiation Loss to Boundaries:       -61.657 kW
 


 Time Stepping Wall Clock Time (s):     1438.257
 Total Elapsed Wall Clock Time (s):     1442.566

STOP: FDS completed successfully (CHID: door_crack_scarc)
