
 Fire Dynamics Simulator

 Current Date     : October 13, 2020  16:17:47
 Revision         : FDS6.7.5-254-g2178300-master
 Revision Date    : Fri Oct 9 15:16:47 2020 -0400
 Compiler         : Intel ifort 18.0.1
 Compilation Date : Oct 12, 2020 10:43:49

 MPI Enabled;    Number of MPI Processes:       1
 OpenMP Enabled; Number of OpenMP Threads:      4

 MPI version: 3.1
 MPI library version: Intel(R) MPI Library 2018 Update 1 for Linux* OS


 Job TITLE        : 
 Job ID string    : 20B0218_Goldbeck_Split-Level_SZ2_M1_v09


 Grid Dimensions, Mesh     1

   Cells in the X Direction            73
   Cells in the Y Direction            90
   Cells in the Z Direction            40
   Number of Grid Cells            262800


 Physical Dimensions, Mesh     1

   Length (m)                      14.600
   Width  (m)                      18.000
   Height (m)                       8.000
   Initial Time Step (s)            0.112

Total Number of Grid Cells        262800


 Miscellaneous Parameters

   Simulation Start Time (s)          0.0
   Simulation End Time (s)         5400.0
   LES Calculation
   Eddy Viscosity:           Deardorff Model (C_DEARDORFF = 0.10)
   Near-wall Eddy Viscosity: Smagorinsky with Van Driest damping (C_SMAGORINSKY = 0.20)
   Turbulent Prandtl Number:         0.50
   Turbulent Schmidt Number:         0.50
   Ambient Temperature (C):         20.00


 Mass Fraction Transformation Matrix to Convert Species Mixtures (Columns) to Primitive Species (Rows)

                         AIR       REAC_FUE  PRODUCTS
   REAC_FUEL             0.000000  1.000000  0.000000
   NITROGEN              0.762470  0.000000  0.702658
   OXYGEN                0.230997  0.000000  0.000000
   CARBON DIOXIDE        0.000591  0.000000  0.213555
   CARBON MONOXIDE       0.000000  0.000000  0.000000
   WATER VAPOR           0.005941  0.000000  0.076457
   SOOT                  0.000000  0.000000  0.007330
   HYDROGEN              0.000000  0.000000  0.000000


 Primitive Species Information

   REAC_FUEL
   Gas Species
   Molecular Weight (g/mol)            14.95845
   Ambient Density (kg/m^3)            0.622
   Enthalpy of Formation (J/kg)       -9.27E+06

   NITROGEN
   Gas Species
   Molecular Weight (g/mol)            28.01340
   Ambient Density (kg/m^3)            1.165
   Enthalpy of Formation (J/kg)        0.00E+00

   OXYGEN
   Gas Species
   Molecular Weight (g/mol)            31.99880
   Ambient Density (kg/m^3)            1.330
   Enthalpy of Formation (J/kg)        0.00E+00

   CARBON DIOXIDE
   Gas Species
   Molecular Weight (g/mol)            44.00950
   Ambient Density (kg/m^3)            1.830
   Enthalpy of Formation (J/kg)       -8.94E+06

   CARBON MONOXIDE
   Gas Species
   Molecular Weight (g/mol)            28.01010
   Ambient Density (kg/m^3)            1.164
   Enthalpy of Formation (J/kg)       -3.95E+06

   WATER VAPOR
   Gas Species
   Molecular Weight (g/mol)            18.01528
   Ambient Density (kg/m^3)            0.749
   Enthalpy of Formation (J/kg)       -1.34E+07

   SOOT
   Gas Species
   Molecular Weight (g/mol)            10.91042
   Ambient Density (kg/m^3)            0.454
   Enthalpy of Formation (J/kg)        0.00E+00

   HYDROGEN
   Gas Species
   Molecular Weight (g/mol)             2.01588
   Ambient Density (kg/m^3)            0.084
   Enthalpy of Formation (J/kg)        0.00E+00


 Tracked (Lumped) Species Information

   AIR
   Molecular Weight (g/mol)            28.75199
   Ambient Density (kg/m^3)            1.195
   Initial Mass Fraction               1.000
   Enthalpy of Formation (J/kg)     -8.50E+04

   Sub Species                    Mass Fraction     Mole Fraction
   NITROGEN                       7.624701E-01      7.825730E-01
   OXYGEN                         2.309974E-01      2.075589E-01
   CARBON DIOXIDE                 5.914651E-04      3.864120E-04
   WATER VAPOR                    5.940984E-03      9.481679E-03
 
     Viscosity (kg/m/s) Ambient,  293 K:  1.80E-05
                                  500 K:  2.61E-05
                                 1000 K:  4.13E-05
                                 1500 K:  5.37E-05
   Therm. Cond. (W/m/K) Ambient,  293 K:  2.56E-02
                                  500 K:  3.81E-02
                                 1000 K:  6.69E-02
                                 1500 K:  9.25E-02
        Enthalpy (J/kg) Ambient,  293 K: -9.01E+04
                                  500 K:  1.22E+05
                                 1000 K:  6.72E+05
                                 1500 K:  1.27E+06
    Spec. Heat (J/kg/K) Ambient,  293 K:  1.02E+03
                                  500 K:  1.04E+03
                                 1000 K:  1.16E+03
                                 1500 K:  1.23E+03
   Diff. Coeff. (m^2/s) Ambient,  293 K:  1.99E-05
                                  500 K:  4.96E-05
                                 1000 K:  1.58E-04
                                 1500 K:  3.09E-04

   REAC_FUEL
   Molecular Weight (g/mol)            14.95845
   Ambient Density (kg/m^3)            0.622
   Initial Mass Fraction               0.000
   Enthalpy of Formation (J/kg)     -9.27E+06

   Sub Species                    Mass Fraction     Mole Fraction
   REAC_FUEL                      1.000000E+00      1.000000E+00
 
     Viscosity (kg/m/s) Ambient,  293 K:  1.27E-05
                                  500 K:  1.84E-05
                                 1000 K:  2.89E-05
                                 1500 K:  3.75E-05
   Therm. Cond. (W/m/K) Ambient,  293 K:  3.48E-02
                                  500 K:  5.03E-02
                                 1000 K:  7.91E-02
                                 1500 K:  1.03E-01
        Enthalpy (J/kg) Ambient,  293 K: -9.28E+06
                                  500 K: -8.87E+06
                                 1000 K: -7.90E+06
                                 1500 K: -6.93E+06
    Spec. Heat (J/kg/K) Ambient,  293 K:  1.95E+03
                                  500 K:  1.95E+03
                                 1000 K:  1.95E+03
                                 1500 K:  1.95E+03
   Diff. Coeff. (m^2/s) Ambient,  293 K:  2.38E-05
                                  500 K:  5.91E-05
                                 1000 K:  1.88E-04
                                 1500 K:  3.68E-04

   PRODUCTS
   Molecular Weight (g/mol)            28.69337
   Ambient Density (kg/m^3)            1.193
   Initial Mass Fraction               0.000
   Enthalpy of Formation (J/kg)     -2.94E+06

   Sub Species                    Mass Fraction     Mole Fraction
   NITROGEN                       7.026583E-01      7.197139E-01
   CARBON DIOXIDE                 2.135546E-01      1.392336E-01
   CARBON MONOXIDE                0.000000E+00      0.000000E+00
   WATER VAPOR                    7.645708E-02      1.217750E-01
   SOOT                           7.330093E-03      1.927744E-02
 
     Viscosity (kg/m/s) Ambient,  293 K:  1.62E-05
                                  500 K:  2.40E-05
                                 1000 K:  3.89E-05
                                 1500 K:  5.12E-05
   Therm. Cond. (W/m/K) Ambient,  293 K:  2.32E-02
                                  500 K:  3.61E-02
                                 1000 K:  6.68E-02
                                 1500 K:  9.51E-02
        Enthalpy (J/kg) Ambient,  293 K: -2.94E+06
                                  500 K: -2.72E+06
                                 1000 K: -2.12E+06
                                 1500 K: -1.45E+06
    Spec. Heat (J/kg/K) Ambient,  293 K:  1.06E+03
                                  500 K:  1.12E+03
                                 1000 K:  1.27E+03
                                 1500 K:  1.37E+03
   Diff. Coeff. (m^2/s) Ambient,  293 K:  1.95E-05
                                  500 K:  4.92E-05
                                 1000 K:  1.58E-04
                                 1500 K:  3.11E-04


 Gas Phase Reaction Information

   Mischbrandlast aus:		40% Polyethylen,30% Styropor, 30% Polyurethan

   Reaction ID:  Reaction1

   Fuel                                           Heat of Combustion (kJ/kg)
   REAC_FUEL                                                      25820.0000

   Stoichiometry

   Primitive Species Stoich. Coeff.
   Species ID                                                          Molar
   REAC_FUEL                                                       -1.000000
   NITROGEN                                                         0.015000
   OXYGEN                                                          -1.217862
   CARBON DIOXIDE                                                   0.888947
   WATER VAPOR                                                      0.723830
   SOOT                                                             0.123392

   Tracked (Lumped) Species Stoich. Coeff.
   Species ID                                             Molar         Mass
   AIR                                                -5.867550   -11.278153
   REAC_FUEL                                          -1.000000    -1.000000
   PRODUCTS                                            6.400858    12.278153

   Reaction Kinetics

   Arrhenius Parameters
   Pre-exponential:    Infinite
   Activation Energy:  N/A

   ODE Solver:  EXPLICIT EULER
   Extinction Model:  EXTINCTION 2
   Auto-Ignition Temperature (K):       0.0
   Critical Flame Temperature (K):   1700.2


 Material Information

   1 CONCRETE                                                    
     Stahlbeton C30-C37 WU
     Emissivity                      0.900
     Density (kg/m3)                2400.0
     Specific Heat (kJ/kg/K)      1.00E+00
     Conductivity (W/m/K)          2.10E+00

   2 STEEL                                                       
     Drysdale, Intro to Fire Dynamics - ATF NIST Multi-Floor Validation
     Emissivity                     95.000
     Density (kg/m3)                7850.0
     Specific Heat (kJ/kg/K)      4.60E-01
     Conductivity (W/m/K)          4.58E+01

   3 STEEL03                                                     
     Drysdale, Intro to Fire Dynamics - ATF NIST Multi-Floor Validation
     Emissivity                      0.950
     Density (kg/m3)                7850.0
     Specific Heat (kJ/kg/K)      4.60E-01
     Conductivity (W/m/K)          4.58E+01


 Surface Conditions

   0 INERT (DEFAULT)

   1 ADIABATIC

   2 BETON
     Material List
          1  CONCRETE
     Layer  1
        Thickness   (m):  0.10000
        Density (kg/m3):  2400.00
        CONCRETE, Mass fraction:    1.00
     Total surface density   240.000 kg/m2
     Reaction products considered from the first  0.50 layers.
     Solid Phase Node, Layer, Coordinates(m):
                    0      1       0.0000000
                    1      1       0.0007937
                    2      1       0.0023810
                    3      1       0.0055556
                    4      1       0.0119048
                    5      1       0.0246032
                    6      1       0.0500000
                    7      1       0.0753968
                    8      1       0.0880952
                    9      1       0.0944444
                   10      1       0.0976190
                   11      1       0.0992063
                   12      1       0.1000000
     Exposed Backing

   3 STAHL
     Material List
          1  STEEL
     Layer  1
        Thickness   (m):  0.05000
        Density (kg/m3):  7850.00
        STEEL, Mass fraction:    1.00
     Total surface density   392.500 kg/m2
     Reaction products considered from the first  0.50 layers.
     Solid Phase Node, Layer, Coordinates(m):
                    0      1       0.0000000
                    1      1       0.0022727
                    2      1       0.0068182
                    3      1       0.0159091
                    4      1       0.0340909
                    5      1       0.0431818
                    6      1       0.0477273
                    7      1       0.0500000
     Exposed Backing

   4 CAR_BODY02
     Properties completely fabricated
     Material List
          1  STEEL03
     Layer  1
        Thickness   (m):  0.00120
        Density (kg/m3):  7850.00
        STEEL03, Mass fraction:    1.00
     Total surface density     9.420 kg/m2
     Reaction products considered from the first  0.50 layers.
     Solid Phase Node, Layer, Coordinates(m):
                    0      1       0.0000000
                    1      1       0.0012000
     Exposed Backing

   5 BURNER1_PKW1
     HRR Per Unit Area (kW/m2)       1921.3
     REAC_FUEL Mass Flux (kg/s/m2)   7.44E-02

   6 BURNER2_VAN
     HRR Per Unit Area (kW/m2)       3846.2
     REAC_FUEL Mass Flux (kg/s/m2)   1.49E-01

   7 BURNER3_PKW2
     HRR Per Unit Area (kW/m2)       1921.3
     REAC_FUEL Mass Flux (kg/s/m2)   7.44E-02

   8 BURNER4_PKW3
     HRR Per Unit Area (kW/m2)       1921.3
     REAC_FUEL Mass Flux (kg/s/m2)   7.44E-02

   9 OPEN
     Passive Vent to Atmosphere

  10 MIRROR
     Symmetry Plane

  11 INTERPOLATED

  12 PERIODIC

  13 HVAC

  14 MASSLESS TRACER

  15 DROPLET

  16 EVACUATION_OUTFLOW
     Normal Velocity (m/s)         0.000

  17 MASSLESS TARGET

  18 PERIODIC FLOW ONLY


 Cut-off Density and Temperature

    Minimum Temperature:   -10.0 C
    Maximum Temperature:  2726.8 C
    Minimum Density:  1.195E-01 kg/m3
    Maximum Density:  2.663E+00 kg/m3


 Device Coordinates

     1 Coords:     38.100000     16.500000      1.500000, Make: null, ID: SZ2_SM_-3/0_2_110, Quantity: ADIABATIC SURFACE TEMPERATURE
     2 Coords:     38.300000     16.700000      1.500000, Make: null, ID: SZ2_SM_-3/0_3_110, Quantity: ADIABATIC SURFACE TEMPERATURE
     3 Coords:     37.900000     16.700000      1.500000, Make: null, ID: SZ2_SM_-3/0_4_110, Quantity: ADIABATIC SURFACE TEMPERATURE
     4 Coords:     38.100000     16.500000      1.700000, Make: null, ID: SZ2_SM_-3/0_2_130, Quantity: ADIABATIC SURFACE TEMPERATURE
     5 Coords:     38.300000     16.700000      1.700000, Make: null, ID: SZ2_SM_-3/0_3_130, Quantity: ADIABATIC SURFACE TEMPERATURE
     6 Coords:     37.900000     16.700000      1.700000, Make: null, ID: SZ2_SM_-3/0_4_130, Quantity: ADIABATIC SURFACE TEMPERATURE
     7 Coords:     38.100000     16.900000      1.900000, Make: null, ID: SZ2_SM_-3/0_1_150, Quantity: ADIABATIC SURFACE TEMPERATURE
     8 Coords:     38.100000     16.500000      1.900000, Make: null, ID: SZ2_SM_-3/0_2_150, Quantity: ADIABATIC SURFACE TEMPERATURE
     9 Coords:     38.300000     16.700000      1.900000, Make: null, ID: SZ2_SM_-3/0_3_150, Quantity: ADIABATIC SURFACE TEMPERATURE
    10 Coords:     37.900000     16.700000      1.900000, Make: null, ID: SZ2_SM_-3/0_4_150, Quantity: ADIABATIC SURFACE TEMPERATURE
    11 Coords:     38.100000     16.900000      2.700000, Make: null, ID: SZ2_SM_-3/0_1_230, Quantity: ADIABATIC SURFACE TEMPERATURE
    12 Coords:     38.300000     16.700000      2.700000, Make: null, ID: SZ2_SM_-3/0_3_230, Quantity: ADIABATIC SURFACE TEMPERATURE
    13 Coords:     37.900000     16.700000      2.700000, Make: null, ID: SZ2_SM_-3/0_4_230, Quantity: ADIABATIC SURFACE TEMPERATURE
    14 Coords:     38.100000     16.900000      3.300000, Make: null, ID: SZ2_SM_-3/0_1_290, Quantity: ADIABATIC SURFACE TEMPERATURE
    15 Coords:     38.100000     16.500000      3.300000, Make: null, ID: SZ2_SM_-3/0_2_290, Quantity: ADIABATIC SURFACE TEMPERATURE
    16 Coords:     38.100000     16.900000      3.500000, Make: null, ID: SZ2_SM_-3/0_1_310, Quantity: ADIABATIC SURFACE TEMPERATURE
    17 Coords:     38.100000     16.500000      3.500000, Make: null, ID: SZ2_SM_-3/0_2_310, Quantity: ADIABATIC SURFACE TEMPERATURE
    18 Coords:     38.100000     16.900000      3.700000, Make: null, ID: SZ2_SM_-3/0_1_330, Quantity: ADIABATIC SURFACE TEMPERATURE
    19 Coords:     38.100000     16.500000      3.700000, Make: null, ID: SZ2_SM_-3/0_2_330, Quantity: ADIABATIC SURFACE TEMPERATURE
    20 Coords:     38.100000     16.500000      4.300000, Make: null, ID: SZ2_SM_-3/0_2_390, Quantity: ADIABATIC SURFACE TEMPERATURE
    21 Coords:     40.700000     16.500000      1.500000, Make: null, ID: SZ2_SM_-2/0_2_110, Quantity: ADIABATIC SURFACE TEMPERATURE
    22 Coords:     40.900000     16.700000      1.500000, Make: null, ID: SZ2_SM_-2/0_3_110, Quantity: ADIABATIC SURFACE TEMPERATURE
    23 Coords:     40.500000     16.700000      1.500000, Make: null, ID: SZ2_SM_-2/0_4_110, Quantity: ADIABATIC SURFACE TEMPERATURE
    24 Coords:     40.700000     16.500000      1.700000, Make: null, ID: SZ2_SM_-2/0_2_130, Quantity: ADIABATIC SURFACE TEMPERATURE
    25 Coords:     40.900000     16.700000      1.700000, Make: null, ID: SZ2_SM_-2/0_3_130, Quantity: ADIABATIC SURFACE TEMPERATURE
    26 Coords:     40.500000     16.700000      1.700000, Make: null, ID: SZ2_SM_-2/0_4_130, Quantity: ADIABATIC SURFACE TEMPERATURE
    27 Coords:     40.700000     16.900000      1.900000, Make: null, ID: SZ2_SM_-2/0_1_150, Quantity: ADIABATIC SURFACE TEMPERATURE
    28 Coords:     40.700000     16.500000      1.900000, Make: null, ID: SZ2_SM_-2/0_2_150, Quantity: ADIABATIC SURFACE TEMPERATURE
    29 Coords:     40.900000     16.700000      1.900000, Make: null, ID: SZ2_SM_-2/0_3_150, Quantity: ADIABATIC SURFACE TEMPERATURE
    30 Coords:     40.500000     16.700000      1.900000, Make: null, ID: SZ2_SM_-2/0_4_150, Quantity: ADIABATIC SURFACE TEMPERATURE
    31 Coords:     40.700000     16.900000      2.700000, Make: null, ID: SZ2_SM_-2/0_1_230, Quantity: ADIABATIC SURFACE TEMPERATURE
    32 Coords:     40.900000     16.700000      2.700000, Make: null, ID: SZ2_SM_-2/0_3_230, Quantity: ADIABATIC SURFACE TEMPERATURE
    33 Coords:     40.500000     16.700000      2.700000, Make: null, ID: SZ2_SM_-2/0_4_230, Quantity: ADIABATIC SURFACE TEMPERATURE
    34 Coords:     40.700000     16.900000      3.300000, Make: null, ID: SZ2_SM_-2/0_1_290, Quantity: ADIABATIC SURFACE TEMPERATURE
    35 Coords:     40.700000     16.500000      3.300000, Make: null, ID: SZ2_SM_-2/0_2_290, Quantity: ADIABATIC SURFACE TEMPERATURE
    36 Coords:     40.700000     16.900000      3.500000, Make: null, ID: SZ2_SM_-2/0_1_310, Quantity: ADIABATIC SURFACE TEMPERATURE
    37 Coords:     40.700000     16.500000      3.500000, Make: null, ID: SZ2_SM_-2/0_2_310, Quantity: ADIABATIC SURFACE TEMPERATURE
    38 Coords:     40.700000     16.900000      3.700000, Make: null, ID: SZ2_SM_-2/0_1_330, Quantity: ADIABATIC SURFACE TEMPERATURE
    39 Coords:     40.700000     16.500000      3.700000, Make: null, ID: SZ2_SM_-2/0_2_330, Quantity: ADIABATIC SURFACE TEMPERATURE
    40 Coords:     40.700000     16.500000      4.300000, Make: null, ID: SZ2_SM_-2/0_2_390, Quantity: ADIABATIC SURFACE TEMPERATURE
    41 Coords:     43.100000     16.500000      1.500000, Make: null, ID: SZ2_SM_-1/0_2_110, Quantity: ADIABATIC SURFACE TEMPERATURE
    42 Coords:     42.900000     16.700000      1.500000, Make: null, ID: SZ2_SM_-1/0_4_110, Quantity: ADIABATIC SURFACE TEMPERATURE
    43 Coords:     43.300000     16.700000      1.500000, Make: null, ID: SZ2_SM_-1/0_3_110, Quantity: ADIABATIC SURFACE TEMPERATURE
    44 Coords:     43.100000     16.500000      1.700000, Make: null, ID: SZ2_SM_-1/0_2_130, Quantity: ADIABATIC SURFACE TEMPERATURE
    45 Coords:     43.300000     16.700000      1.700000, Make: null, ID: SZ2_SM_-1/0_3_130, Quantity: ADIABATIC SURFACE TEMPERATURE
    46 Coords:     42.900000     16.700000      1.700000, Make: null, ID: SZ2_SM_-1/0_4_130, Quantity: ADIABATIC SURFACE TEMPERATURE
    47 Coords:     43.100000     16.900000      1.900000, Make: null, ID: SZ2_SM_-1/0_1_150, Quantity: ADIABATIC SURFACE TEMPERATURE
    48 Coords:     43.100000     16.500000      1.900000, Make: null, ID: SZ2_SM_-1/0_2_150, Quantity: ADIABATIC SURFACE TEMPERATURE
    49 Coords:     43.300000     16.700000      1.900000, Make: null, ID: SZ2_SM_-1/0_3_150, Quantity: ADIABATIC SURFACE TEMPERATURE
    50 Coords:     42.900000     16.700000      1.900000, Make: null, ID: SZ2_SM_-1/0_4_150, Quantity: ADIABATIC SURFACE TEMPERATURE
    51 Coords:     43.100000     16.900000      2.700000, Make: null, ID: SZ2_SM_-1/0_1_230, Quantity: ADIABATIC SURFACE TEMPERATURE
    52 Coords:     43.300000     16.700000      2.700000, Make: null, ID: SZ2_SM_-1/0_3_230, Quantity: ADIABATIC SURFACE TEMPERATURE
    53 Coords:     42.900000     16.700000      2.700000, Make: null, ID: SZ2_SM_-1/0_4_230, Quantity: ADIABATIC SURFACE TEMPERATURE
    54 Coords:     43.100000     16.900000      3.300000, Make: null, ID: SZ2_SM_-1/0_1_290, Quantity: ADIABATIC SURFACE TEMPERATURE
    55 Coords:     43.100000     16.500000      3.300000, Make: null, ID: SZ2_SM_-1/0_2_290, Quantity: ADIABATIC SURFACE TEMPERATURE
    56 Coords:     43.100000     16.900000      3.500000, Make: null, ID: SZ2_SM_-1/0_1_310, Quantity: ADIABATIC SURFACE TEMPERATURE
    57 Coords:     43.100000     16.500000      3.500000, Make: null, ID: SZ2_SM_-1/0_2_310, Quantity: ADIABATIC SURFACE TEMPERATURE
    58 Coords:     43.100000     16.900000      3.700000, Make: null, ID: SZ2_SM_-1/0_1_330, Quantity: ADIABATIC SURFACE TEMPERATURE
    59 Coords:     43.100000     16.500000      3.700000, Make: null, ID: SZ2_SM_-1/0_2_330, Quantity: ADIABATIC SURFACE TEMPERATURE
    60 Coords:     43.100000     16.500000      4.300000, Make: null, ID: SZ2_SM_-1/0_2_390, Quantity: ADIABATIC SURFACE TEMPERATURE
    61 Coords:     45.700000     16.500000      1.500000, Make: null, ID: SZ2_SM_1/0_2_110, Quantity: ADIABATIC SURFACE TEMPERATURE
    62 Coords:     45.900000     16.700000      1.500000, Make: null, ID: SZ2_SM_1/0_3_110, Quantity: ADIABATIC SURFACE TEMPERATURE
    63 Coords:     45.500000     16.700000      1.500000, Make: null, ID: SZ2_SM_1/0_4_110, Quantity: ADIABATIC SURFACE TEMPERATURE
    64 Coords:     45.700000     16.500000      1.700000, Make: null, ID: SZ2_SM_1/0_2_130, Quantity: ADIABATIC SURFACE TEMPERATURE
    65 Coords:     45.900000     16.700000      1.700000, Make: null, ID: SZ2_SM_1/0_3_130, Quantity: ADIABATIC SURFACE TEMPERATURE
    66 Coords:     45.500000     16.700000      1.700000, Make: null, ID: SZ2_SM_1/0_4_130, Quantity: ADIABATIC SURFACE TEMPERATURE
    67 Coords:     45.700000     16.900000      1.900000, Make: null, ID: SZ2_SM_1/0_1_150, Quantity: ADIABATIC SURFACE TEMPERATURE
    68 Coords:     45.700000     16.500000      1.900000, Make: null, ID: SZ2_SM_1/0_2_150, Quantity: ADIABATIC SURFACE TEMPERATURE
    69 Coords:     45.900000     16.700000      1.900000, Make: null, ID: SZ2_SM_1/0_3_150, Quantity: ADIABATIC SURFACE TEMPERATURE
    70 Coords:     45.500000     16.700000      1.900000, Make: null, ID: SZ2_SM_1/0_4_150, Quantity: ADIABATIC SURFACE TEMPERATURE
    71 Coords:     45.700000     16.900000      2.700000, Make: null, ID: SZ2_SM_1/0_1_230, Quantity: ADIABATIC SURFACE TEMPERATURE
    72 Coords:     45.900000     16.700000      2.700000, Make: null, ID: SZ2_SM_1/0_3_230, Quantity: ADIABATIC SURFACE TEMPERATURE
    73 Coords:     45.500000     16.700000      2.700000, Make: null, ID: SZ2_SM_1/0_4_230, Quantity: ADIABATIC SURFACE TEMPERATURE
    74 Coords:     45.700000     16.900000      3.300000, Make: null, ID: SZ2_SM_1/0_1_290, Quantity: ADIABATIC SURFACE TEMPERATURE
    75 Coords:     45.700000     16.500000      3.300000, Make: null, ID: SZ2_SM_1/0_2_290, Quantity: ADIABATIC SURFACE TEMPERATURE
    76 Coords:     45.700000     16.900000      3.500000, Make: null, ID: SZ2_SM_1/0_1_310, Quantity: ADIABATIC SURFACE TEMPERATURE
    77 Coords:     45.700000     16.500000      3.500000, Make: null, ID: SZ2_SM_1/0_2_310, Quantity: ADIABATIC SURFACE TEMPERATURE
    78 Coords:     45.700000     16.900000      3.700000, Make: null, ID: SZ2_SM_1/0_1_330, Quantity: ADIABATIC SURFACE TEMPERATURE
    79 Coords:     45.700000     16.500000      3.700000, Make: null, ID: SZ2_SM_1/0_2_330, Quantity: ADIABATIC SURFACE TEMPERATURE
    80 Coords:     45.700000     16.500000      4.300000, Make: null, ID: SZ2_SM_1/0_2_390, Quantity: ADIABATIC SURFACE TEMPERATURE
    81 Coords:     48.100000     16.500000      1.500000, Make: null, ID: SZ2_SM_2/0_2_110, Quantity: ADIABATIC SURFACE TEMPERATURE
    82 Coords:     48.300000     16.700000      1.500000, Make: null, ID: SZ2_SM_2/0_3_110, Quantity: ADIABATIC SURFACE TEMPERATURE
    83 Coords:     47.900000     16.700000      1.500000, Make: null, ID: SZ2_SM_2/0_4_110, Quantity: ADIABATIC SURFACE TEMPERATURE
    84 Coords:     48.100000     16.500000      1.700000, Make: null, ID: SZ2_SM_2/0_2_130, Quantity: ADIABATIC SURFACE TEMPERATURE
    85 Coords:     48.300000     16.700000      1.700000, Make: null, ID: SZ2_SM_2/0_3_130, Quantity: ADIABATIC SURFACE TEMPERATURE
    86 Coords:     47.900000     16.700000      1.700000, Make: null, ID: SZ2_SM_2/0_4_130, Quantity: ADIABATIC SURFACE TEMPERATURE
    87 Coords:     48.100000     16.900000      1.900000, Make: null, ID: SZ2_SM_2/0_1_150, Quantity: ADIABATIC SURFACE TEMPERATURE
    88 Coords:     48.100000     16.500000      1.900000, Make: null, ID: SZ2_SM_2/0_2_150, Quantity: ADIABATIC SURFACE TEMPERATURE
    89 Coords:     48.300000     16.700000      1.900000, Make: null, ID: SZ2_SM_2/0_3_150, Quantity: ADIABATIC SURFACE TEMPERATURE
    90 Coords:     47.900000     16.700000      1.900000, Make: null, ID: SZ2_SM_2/0_4_150, Quantity: ADIABATIC SURFACE TEMPERATURE
    91 Coords:     48.100000     16.900000      2.700000, Make: null, ID: SZ2_SM_2/0_1_230, Quantity: ADIABATIC SURFACE TEMPERATURE
    92 Coords:     48.300000     16.700000      2.700000, Make: null, ID: SZ2_SM_2/0_3_230, Quantity: ADIABATIC SURFACE TEMPERATURE
    93 Coords:     47.900000     16.700000      2.700000, Make: null, ID: SZ2_SM_2/0_4_230, Quantity: ADIABATIC SURFACE TEMPERATURE
    94 Coords:     48.100000     16.900000      3.300000, Make: null, ID: SZ2_SM_2/0_1_290, Quantity: ADIABATIC SURFACE TEMPERATURE
    95 Coords:     48.100000     16.500000      3.300000, Make: null, ID: SZ2_SM_2/0_2_290, Quantity: ADIABATIC SURFACE TEMPERATURE
    96 Coords:     48.100000     16.900000      3.500000, Make: null, ID: SZ2_SM_2/0_1_310, Quantity: ADIABATIC SURFACE TEMPERATURE
    97 Coords:     48.100000     16.500000      3.500000, Make: null, ID: SZ2_SM_2/0_2_310, Quantity: ADIABATIC SURFACE TEMPERATURE
    98 Coords:     48.100000     16.900000      3.700000, Make: null, ID: SZ2_SM_2/0_1_330, Quantity: ADIABATIC SURFACE TEMPERATURE
    99 Coords:     48.100000     16.500000      3.700000, Make: null, ID: SZ2_SM_2/0_2_330, Quantity: ADIABATIC SURFACE TEMPERATURE
   100 Coords:     48.100000     16.500000      4.300000, Make: null, ID: SZ2_SM_2/0_2_390, Quantity: ADIABATIC SURFACE TEMPERATURE
   101 Coords:     50.700000     16.500000      1.500000, Make: null, ID: SZ2_SM_3/0_2_110, Quantity: ADIABATIC SURFACE TEMPERATURE
   102 Coords:     50.900000     16.700000      1.500000, Make: null, ID: SZ2_SM_3/0_3_110, Quantity: ADIABATIC SURFACE TEMPERATURE
   103 Coords:     50.500000     16.700000      1.500000, Make: null, ID: SZ2_SM_3/0_4_110, Quantity: ADIABATIC SURFACE TEMPERATURE
   104 Coords:     50.700000     16.500000      1.700000, Make: null, ID: SZ2_SM_3/0_2_130, Quantity: ADIABATIC SURFACE TEMPERATURE
   105 Coords:     50.900000     16.700000      1.700000, Make: null, ID: SZ2_SM_3/0_3_130, Quantity: ADIABATIC SURFACE TEMPERATURE
   106 Coords:     50.500000     16.700000      1.700000, Make: null, ID: SZ2_SM_3/0_4_130, Quantity: ADIABATIC SURFACE TEMPERATURE
   107 Coords:     50.700000     16.900000      1.900000, Make: null, ID: SZ2_SM_3/0_1_150, Quantity: ADIABATIC SURFACE TEMPERATURE
   108 Coords:     50.700000     16.500000      1.900000, Make: null, ID: SZ2_SM_3/0_2_150, Quantity: ADIABATIC SURFACE TEMPERATURE
   109 Coords:     50.900000     16.700000      1.900000, Make: null, ID: SZ2_SM_3/0_3_150, Quantity: ADIABATIC SURFACE TEMPERATURE
   110 Coords:     50.500000     16.700000      1.900000, Make: null, ID: SZ2_SM_3/0_4_150, Quantity: ADIABATIC SURFACE TEMPERATURE
   111 Coords:     50.700000     16.900000      2.700000, Make: null, ID: SZ2_SM_3/0_1_230, Quantity: ADIABATIC SURFACE TEMPERATURE
   112 Coords:     50.900000     16.700000      2.700000, Make: null, ID: SZ2_SM_3/0_3_230, Quantity: ADIABATIC SURFACE TEMPERATURE
   113 Coords:     50.500000     16.700000      2.700000, Make: null, ID: SZ2_SM_3/0_4_230, Quantity: ADIABATIC SURFACE TEMPERATURE
   114 Coords:     50.700000     16.900000      3.300000, Make: null, ID: SZ2_SM_3/0_1_290, Quantity: ADIABATIC SURFACE TEMPERATURE
   115 Coords:     50.700000     16.500000      3.300000, Make: null, ID: SZ2_SM_3/0_2_290, Quantity: ADIABATIC SURFACE TEMPERATURE
   116 Coords:     50.700000     16.900000      3.500000, Make: null, ID: SZ2_SM_3/0_1_310, Quantity: ADIABATIC SURFACE TEMPERATURE
   117 Coords:     50.700000     16.500000      3.500000, Make: null, ID: SZ2_SM_3/0_2_310, Quantity: ADIABATIC SURFACE TEMPERATURE
   118 Coords:     50.700000     16.900000      3.700000, Make: null, ID: SZ2_SM_3/0_1_330, Quantity: ADIABATIC SURFACE TEMPERATURE
   119 Coords:     50.700000     16.500000      3.700000, Make: null, ID: SZ2_SM_3/0_2_330, Quantity: ADIABATIC SURFACE TEMPERATURE
   120 Coords:     50.700000     16.500000      4.300000, Make: null, ID: SZ2_SM_3/0_2_390, Quantity: ADIABATIC SURFACE TEMPERATURE
   121 Coords:     38.100000     17.900000      3.900000, Make: null, ID: SZ2_DT_-3/1.20_01, Quantity: ADIABATIC SURFACE TEMPERATURE
   122 Coords:     38.100000     18.300000      3.900000, Make: null, ID: SZ2_DT_-3/1.60_01, Quantity: ADIABATIC SURFACE TEMPERATURE
   123 Coords:     38.100000     18.700000      3.900000, Make: null, ID: SZ2_DT_-3/2.00_01, Quantity: ADIABATIC SURFACE TEMPERATURE
   124 Coords:     38.100000     19.100000      3.900000, Make: null, ID: SZ2_DT_-3/2.40_01, Quantity: ADIABATIC SURFACE TEMPERATURE
   125 Coords:     38.100000     19.500000      3.900000, Make: null, ID: SZ2_DT_-3/2.80_01, Quantity: ADIABATIC SURFACE TEMPERATURE
   126 Coords:     38.100000     19.900000      3.900000, Make: null, ID: SZ2_DT_-3/3.20_01, Quantity: ADIABATIC SURFACE TEMPERATURE
   127 Coords:     38.100000     20.300000      3.900000, Make: null, ID: SZ2_DT_-3/3.60_01, Quantity: ADIABATIC SURFACE TEMPERATURE
   128 Coords:     38.100000     20.700000      3.900000, Make: null, ID: SZ2_DT_-3/4.00_01, Quantity: ADIABATIC SURFACE TEMPERATURE
   129 Coords:     38.100000     21.700000      3.900000, Make: null, ID: SZ2_DT_-3/5.00_01, Quantity: ADIABATIC SURFACE TEMPERATURE
   130 Coords:     38.100000     24.900000      3.900000, Make: null, ID: SZ2_DT_-3/8.20_01, Quantity: ADIABATIC SURFACE TEMPERATURE
   131 Coords:     38.100000     15.500000      2.500000, Make: null, ID: SZ2_DT_-3/-1.20_01, Quantity: ADIABATIC SURFACE TEMPERATURE
   132 Coords:     38.100000     15.100000      2.500000, Make: null, ID: SZ2_DT_-3/-1.60_01, Quantity: ADIABATIC SURFACE TEMPERATURE
   133 Coords:     38.100000     14.700000      2.500000, Make: null, ID: SZ2_DT_-3/-2.00_01, Quantity: ADIABATIC SURFACE TEMPERATURE
   134 Coords:     38.100000     14.300000      2.500000, Make: null, ID: SZ2_DT_-3/-2.40_01, Quantity: ADIABATIC SURFACE TEMPERATURE
   135 Coords:     38.100000     13.900000      2.500000, Make: null, ID: SZ2_DT_-3/-2.80_01, Quantity: ADIABATIC SURFACE TEMPERATURE
   136 Coords:     38.100000     13.500000      2.500000, Make: null, ID: SZ2_DT_-3/-3.20_01, Quantity: ADIABATIC SURFACE TEMPERATURE
   137 Coords:     38.100000     13.100000      2.500000, Make: null, ID: SZ2_DT_-3/-3.60_01, Quantity: ADIABATIC SURFACE TEMPERATURE
   138 Coords:     38.100000     12.700000      2.500000, Make: null, ID: SZ2_DT_-3/-4.00_01, Quantity: ADIABATIC SURFACE TEMPERATURE
   139 Coords:     38.100000     11.700000      2.500000, Make: null, ID: SZ2_DT_-3/-5.00_01, Quantity: ADIABATIC SURFACE TEMPERATURE
   140 Coords:     38.100000      8.500000      2.500000, Make: null, ID: SZ2_DT_-3/-8.20_01, Quantity: ADIABATIC SURFACE TEMPERATURE
   141 Coords:     40.700000     17.900000      3.900000, Make: null, ID: SZ2_DT_-2/1.20_1, Quantity: ADIABATIC SURFACE TEMPERATURE
   142 Coords:     40.700000     18.300000      3.900000, Make: null, ID: SZ2_DT_-2/1.60_1, Quantity: ADIABATIC SURFACE TEMPERATURE
   143 Coords:     40.700000     18.700000      3.900000, Make: null, ID: SZ2_DT_-2/2.00_1, Quantity: ADIABATIC SURFACE TEMPERATURE
   144 Coords:     40.700000     19.100000      3.900000, Make: null, ID: SZ2_DT_-2/2.40_1, Quantity: ADIABATIC SURFACE TEMPERATURE
   145 Coords:     40.700000     19.500000      3.900000, Make: null, ID: SZ2_DT_-2/2.80_1, Quantity: ADIABATIC SURFACE TEMPERATURE
   146 Coords:     40.700000     19.900000      3.900000, Make: null, ID: SZ2_DT_-2/3.20_1, Quantity: ADIABATIC SURFACE TEMPERATURE
   147 Coords:     40.700000     20.300000      3.900000, Make: null, ID: SZ2_DT_-2/3.60_1, Quantity: ADIABATIC SURFACE TEMPERATURE
   148 Coords:     40.700000     20.700000      3.900000, Make: null, ID: SZ2_DT_-2/4.00_1, Quantity: ADIABATIC SURFACE TEMPERATURE
   149 Coords:     40.700000     21.700000      3.900000, Make: null, ID: SZ2_DT_-2/5.00_1, Quantity: ADIABATIC SURFACE TEMPERATURE
   150 Coords:     40.700000     24.900000      3.900000, Make: null, ID: SZ2_DT_-2/8.20_1, Quantity: ADIABATIC SURFACE TEMPERATURE
   151 Coords:     40.700000     15.500000      2.500000, Make: null, ID: SZ2_DT_-2/-1.20_1, Quantity: ADIABATIC SURFACE TEMPERATURE
   152 Coords:     40.700000     15.100000      2.500000, Make: null, ID: SZ2_DT_-2/-1.60_1, Quantity: ADIABATIC SURFACE TEMPERATURE
   153 Coords:     40.700000     14.700000      2.500000, Make: null, ID: SZ2_DT_-2/-2.00_1, Quantity: ADIABATIC SURFACE TEMPERATURE
   154 Coords:     40.700000     14.300000      2.500000, Make: null, ID: SZ2_DT_-2/-2.40_1, Quantity: ADIABATIC SURFACE TEMPERATURE
   155 Coords:     40.700000     13.900000      2.500000, Make: null, ID: SZ2_DT_-2/-2.80_1, Quantity: ADIABATIC SURFACE TEMPERATURE
   156 Coords:     40.700000     13.500000      2.500000, Make: null, ID: SZ2_DT_-2/-3.20_1, Quantity: ADIABATIC SURFACE TEMPERATURE
   157 Coords:     40.700000     13.100000      2.500000, Make: null, ID: SZ2_DT_-2/-3.60_1, Quantity: ADIABATIC SURFACE TEMPERATURE
   158 Coords:     40.700000     12.700000      2.500000, Make: null, ID: SZ2_DT_-2/-4.00_1, Quantity: ADIABATIC SURFACE TEMPERATURE
   159 Coords:     40.700000     11.700000      2.500000, Make: null, ID: SZ2_DT_-2/-5.00_1, Quantity: ADIABATIC SURFACE TEMPERATURE
   160 Coords:     40.700000      8.500000      2.500000, Make: null, ID: SZ2_DT_-2/-8.20_1, Quantity: ADIABATIC SURFACE TEMPERATURE
   161 Coords:     43.100000     17.900000      3.900000, Make: null, ID: SZ2_DT_-1/1.20_1, Quantity: ADIABATIC SURFACE TEMPERATURE
   162 Coords:     43.100000     18.300000      3.900000, Make: null, ID: SZ2_DT_-1/1.60_1, Quantity: ADIABATIC SURFACE TEMPERATURE
   163 Coords:     43.100000     18.700000      3.900000, Make: null, ID: SZ2_DT_-1/2.00_1, Quantity: ADIABATIC SURFACE TEMPERATURE
   164 Coords:     43.100000     19.500000      3.900000, Make: null, ID: SZ2_DT_-1/2.80_1, Quantity: ADIABATIC SURFACE TEMPERATURE
   165 Coords:     43.100000     19.900000      3.900000, Make: null, ID: SZ2_DT_-1/3.20_1, Quantity: ADIABATIC SURFACE TEMPERATURE
   166 Coords:     43.100000     19.100000      3.900000, Make: null, ID: SZ2_DT_-1/2.40_1, Quantity: ADIABATIC SURFACE TEMPERATURE
   167 Coords:     43.100000     20.300000      3.900000, Make: null, ID: SZ2_DT_-1/3.60_1, Quantity: ADIABATIC SURFACE TEMPERATURE
   168 Coords:     43.100000     20.700000      3.900000, Make: null, ID: SZ2_DT_-1/4.00_1, Quantity: ADIABATIC SURFACE TEMPERATURE
   169 Coords:     43.100000     21.700000      3.900000, Make: null, ID: SZ2_DT_-1/5.00_1, Quantity: ADIABATIC SURFACE TEMPERATURE
   170 Coords:     43.100000     24.900000      3.900000, Make: null, ID: SZ2_DT_-1/8.20_1, Quantity: ADIABATIC SURFACE TEMPERATURE
   171 Coords:     43.100000     15.500000      2.500000, Make: null, ID: SZ2_DT_-1/-1.20_1, Quantity: ADIABATIC SURFACE TEMPERATURE
   172 Coords:     43.100000     15.100000      2.500000, Make: null, ID: SZ2_DT_-1/-1.60_1, Quantity: ADIABATIC SURFACE TEMPERATURE
   173 Coords:     43.100000     14.700000      2.500000, Make: null, ID: SZ2_DT_-1/-2.00_1, Quantity: ADIABATIC SURFACE TEMPERATURE
   174 Coords:     43.100000     14.300000      2.500000, Make: null, ID: SZ2_DT_-1/-2.40_1, Quantity: ADIABATIC SURFACE TEMPERATURE
   175 Coords:     43.100000     13.900000      2.500000, Make: null, ID: SZ2_DT_-1/-2.80_1, Quantity: ADIABATIC SURFACE TEMPERATURE
   176 Coords:     43.100000     13.500000      2.500000, Make: null, ID: SZ2_DT_-1/-3.20_1, Quantity: ADIABATIC SURFACE TEMPERATURE
   177 Coords:     43.100000     13.100000      2.500000, Make: null, ID: SZ2_DT_-1/-3.60_1, Quantity: ADIABATIC SURFACE TEMPERATURE
   178 Coords:     43.100000     12.700000      2.500000, Make: null, ID: SZ2_DT_-1/-4.00_1, Quantity: ADIABATIC SURFACE TEMPERATURE
   179 Coords:     43.100000     11.700000      2.500000, Make: null, ID: SZ2_DT_-1/-5.00_1, Quantity: ADIABATIC SURFACE TEMPERATURE
   180 Coords:     43.100000      8.500000      2.500000, Make: null, ID: SZ2_DT_-1/-8.20_1, Quantity: ADIABATIC SURFACE TEMPERATURE
   181 Coords:     45.700000     17.900000      3.900000, Make: null, ID: SZ2_DT_1/1.20_1, Quantity: ADIABATIC SURFACE TEMPERATURE
   182 Coords:     45.700000     18.300000      3.900000, Make: null, ID: SZ2_DT_1/1.60_1, Quantity: ADIABATIC SURFACE TEMPERATURE
   183 Coords:     45.700000     18.700000      3.900000, Make: null, ID: SZ2_DT_1/2.00_1, Quantity: ADIABATIC SURFACE TEMPERATURE
   184 Coords:     45.700000     19.100000      3.900000, Make: null, ID: SZ2_DT_1/2.40_1, Quantity: ADIABATIC SURFACE TEMPERATURE
   185 Coords:     45.700000     19.500000      3.900000, Make: null, ID: SZ2_DT_1/2.80_1, Quantity: ADIABATIC SURFACE TEMPERATURE
   186 Coords:     45.700000     19.900000      3.900000, Make: null, ID: SZ2_DT_1/3.20_1, Quantity: ADIABATIC SURFACE TEMPERATURE
   187 Coords:     45.700000     20.300000      3.900000, Make: null, ID: SZ2_DT_1/3.60_1, Quantity: ADIABATIC SURFACE TEMPERATURE
   188 Coords:     45.700000     20.700000      3.900000, Make: null, ID: SZ2_DT_1/4.00_1, Quantity: ADIABATIC SURFACE TEMPERATURE
   189 Coords:     45.700000     21.700000      3.900000, Make: null, ID: SZ2_DT_1/5.00_1, Quantity: ADIABATIC SURFACE TEMPERATURE
   190 Coords:     45.700000     24.900000      3.900000, Make: null, ID: SZ2_DT_1/8.20_1, Quantity: ADIABATIC SURFACE TEMPERATURE
   191 Coords:     45.700000     15.500000      2.500000, Make: null, ID: SZ2_DT_1/-1.20_1, Quantity: ADIABATIC SURFACE TEMPERATURE
   192 Coords:     45.700000     15.100000      2.500000, Make: null, ID: SZ2_DT_1/-1.60_1, Quantity: ADIABATIC SURFACE TEMPERATURE
   193 Coords:     45.700000     14.700000      2.500000, Make: null, ID: SZ2_DT_1/-2.00_1, Quantity: ADIABATIC SURFACE TEMPERATURE
   194 Coords:     45.700000     14.300000      2.500000, Make: null, ID: SZ2_DT_1/-2.40_1, Quantity: ADIABATIC SURFACE TEMPERATURE
   195 Coords:     45.700000     13.900000      2.500000, Make: null, ID: SZ2_DT_1/-2.80_1, Quantity: ADIABATIC SURFACE TEMPERATURE
   196 Coords:     45.700000     13.500000      2.500000, Make: null, ID: SZ2_DT_1/-3.20_1, Quantity: ADIABATIC SURFACE TEMPERATURE
   197 Coords:     45.700000     13.100000      2.500000, Make: null, ID: SZ2_DT_1/-3.60_1, Quantity: ADIABATIC SURFACE TEMPERATURE
   198 Coords:     45.700000     12.700000      2.500000, Make: null, ID: SZ2_DT_1/-4.00_2, Quantity: ADIABATIC SURFACE TEMPERATURE
   199 Coords:     45.700000     11.700000      2.500000, Make: null, ID: SZ2_DT_1/-5.00_1, Quantity: ADIABATIC SURFACE TEMPERATURE
   200 Coords:     45.700000      8.500000      2.500000, Make: null, ID: SZ2_DT_1/-8.20_1, Quantity: ADIABATIC SURFACE TEMPERATURE
   201 Coords:     48.100000     17.900000      3.900000, Make: null, ID: SZ2_DT_2/1.20_1, Quantity: ADIABATIC SURFACE TEMPERATURE
   202 Coords:     48.100000     18.300000      3.900000, Make: null, ID: SZ2_DT_2/1.60_1, Quantity: ADIABATIC SURFACE TEMPERATURE
   203 Coords:     48.100000     18.700000      3.900000, Make: null, ID: SZ2_DT_2/2.00_1, Quantity: ADIABATIC SURFACE TEMPERATURE
   204 Coords:     48.100000     19.100000      3.900000, Make: null, ID: SZ2_DT_2/2.40_1, Quantity: ADIABATIC SURFACE TEMPERATURE
   205 Coords:     48.100000     19.500000      3.900000, Make: null, ID: SZ2_DT_2/2.80_1, Quantity: ADIABATIC SURFACE TEMPERATURE
   206 Coords:     48.100000     19.900000      3.900000, Make: null, ID: SZ2_DT_2/3.20_1, Quantity: ADIABATIC SURFACE TEMPERATURE
   207 Coords:     48.100000     20.300000      3.900000, Make: null, ID: SZ2_DT_2/3.60_1, Quantity: ADIABATIC SURFACE TEMPERATURE
   208 Coords:     48.100000     20.700000      3.900000, Make: null, ID: SZ2_DT_2/4.00_1, Quantity: ADIABATIC SURFACE TEMPERATURE
   209 Coords:     48.100000     21.700000      3.900000, Make: null, ID: SZ2_DT_2/5.00_1, Quantity: ADIABATIC SURFACE TEMPERATURE
   210 Coords:     48.100000     24.900000      3.900000, Make: null, ID: SZ2_DT_2/8.20_1, Quantity: ADIABATIC SURFACE TEMPERATURE
   211 Coords:     48.100000     15.500000      2.500000, Make: null, ID: SZ2_DT_2/-1.20_1, Quantity: ADIABATIC SURFACE TEMPERATURE
   212 Coords:     48.100000     15.100000      2.500000, Make: null, ID: SZ2_DT_2/-1.60_1, Quantity: ADIABATIC SURFACE TEMPERATURE
   213 Coords:     48.100000     14.700000      2.500000, Make: null, ID: SZ2_DT_2/-2.00_1, Quantity: ADIABATIC SURFACE TEMPERATURE
   214 Coords:     48.100000     14.300000      2.500000, Make: null, ID: SZ2_DT_2/-2.40_1, Quantity: ADIABATIC SURFACE TEMPERATURE
   215 Coords:     48.100000     13.900000      2.500000, Make: null, ID: SZ2_DT_2/-2.80_1, Quantity: ADIABATIC SURFACE TEMPERATURE
   216 Coords:     48.100000     13.500000      2.500000, Make: null, ID: SZ2_DT_2/-3.20_1, Quantity: ADIABATIC SURFACE TEMPERATURE
   217 Coords:     48.100000     13.100000      2.500000, Make: null, ID: SZ2_DT_2/-3.60_1, Quantity: ADIABATIC SURFACE TEMPERATURE
   218 Coords:     48.100000     12.700000      2.500000, Make: null, ID: SZ2_DT_2/-4.00_2, Quantity: ADIABATIC SURFACE TEMPERATURE
   219 Coords:     48.100000     11.700000      2.500000, Make: null, ID: SZ2_DT_2/-5.00_1, Quantity: ADIABATIC SURFACE TEMPERATURE
   220 Coords:     48.100000      8.500000      2.500000, Make: null, ID: SZ2_DT_2/-8.20_1, Quantity: ADIABATIC SURFACE TEMPERATURE
   221 Coords:     50.700000     17.900000      3.900000, Make: null, ID: SZ2_DT_3/1.20_1, Quantity: ADIABATIC SURFACE TEMPERATURE
   222 Coords:     50.700000     18.300000      3.900000, Make: null, ID: SZ2_DT_3/1.60_1, Quantity: ADIABATIC SURFACE TEMPERATURE
   223 Coords:     50.700000     18.700000      3.900000, Make: null, ID: SZ2_DT_3/2.00_1, Quantity: ADIABATIC SURFACE TEMPERATURE
   224 Coords:     50.700000     19.100000      3.900000, Make: null, ID: SZ2_DT_3/2.40_1, Quantity: ADIABATIC SURFACE TEMPERATURE
   225 Coords:     50.700000     19.500000      3.900000, Make: null, ID: SZ2_DT_3/2.80_1, Quantity: ADIABATIC SURFACE TEMPERATURE
   226 Coords:     50.700000     19.900000      3.900000, Make: null, ID: SZ2_DT_3/3.20_1, Quantity: ADIABATIC SURFACE TEMPERATURE
   227 Coords:     50.700000     20.300000      3.900000, Make: null, ID: SZ2_DT_3/3.60_1, Quantity: ADIABATIC SURFACE TEMPERATURE
   228 Coords:     50.700000     20.700000      3.900000, Make: null, ID: SZ2_DT_3/4.00_1, Quantity: ADIABATIC SURFACE TEMPERATURE
   229 Coords:     50.700000     21.700000      3.900000, Make: null, ID: SZ2_DT_3/5.00_1, Quantity: ADIABATIC SURFACE TEMPERATURE
   230 Coords:     50.700000     24.900000      3.900000, Make: null, ID: SZ2_DT_3/8.20_1, Quantity: ADIABATIC SURFACE TEMPERATURE
   231 Coords:     50.700000     15.500000      2.500000, Make: null, ID: SZ2_DT_3/-1.20_1, Quantity: ADIABATIC SURFACE TEMPERATURE
   232 Coords:     50.700000     15.100000      2.500000, Make: null, ID: SZ2_DT_3/-1.60_1, Quantity: ADIABATIC SURFACE TEMPERATURE
   233 Coords:     50.700000     14.700000      2.500000, Make: null, ID: SZ2_DT_3/-2.00_1, Quantity: ADIABATIC SURFACE TEMPERATURE
   234 Coords:     50.700000     14.300000      2.500000, Make: null, ID: SZ2_DT_3/-2.40_1, Quantity: ADIABATIC SURFACE TEMPERATURE
   235 Coords:     50.700000     13.900000      2.500000, Make: null, ID: SZ2_DT_3/-2.80_1, Quantity: ADIABATIC SURFACE TEMPERATURE
   236 Coords:     50.700000     13.500000      2.500000, Make: null, ID: SZ2_DT_3/-3.20_1, Quantity: ADIABATIC SURFACE TEMPERATURE
   237 Coords:     50.700000     11.700000      2.500000, Make: null, ID: SZ2_DT_3/-5.00_1, Quantity: ADIABATIC SURFACE TEMPERATURE
   238 Coords:     50.700000      8.500000      2.500000, Make: null, ID: SZ2_DT_3/-8.20_1, Quantity: ADIABATIC SURFACE TEMPERATURE
   239 Coords:     50.700000     13.100000      2.500000, Make: null, ID: SZ2_DT_3/-3.60_1, Quantity: ADIABATIC SURFACE TEMPERATURE
   240 Coords:     50.700000     12.700000      2.500000, Make: null, ID: SZ2_DT_3/-4.00_1, Quantity: ADIABATIC SURFACE TEMPERATURE
   241 Coords:     41.900000     13.700000      1.700000, Make: null, ID: VAN_130, Quantity: TEMPERATURE
   242 Coords:     41.900000     13.700000      2.100000, Make: null, ID: VAN_170, Quantity: TEMPERATURE
   243 Coords:     41.900000     13.700000      2.500000, Make: null, ID: VAN_210, Quantity: TEMPERATURE
   244 Coords:     44.500000     13.700000      1.700000, Make: null, ID: PKW1_130, Quantity: TEMPERATURE
   245 Coords:     44.500000     13.700000      1.900000, Make: null, ID: PKW1_150, Quantity: TEMPERATURE
   246 Coords:     44.500000     13.700000      2.500000, Make: null, ID: PKW1_210, Quantity: TEMPERATURE
   247 Coords:     41.900000     19.700000      3.100000, Make: null, ID: PKW3_130, Quantity: TEMPERATURE
   248 Coords:     41.900000     19.700000      3.300000, Make: null, ID: PKW3_150, Quantity: TEMPERATURE
   249 Coords:     41.900000     19.700000      3.900000, Make: null, ID: PKW3_210, Quantity: TEMPERATURE
   250 Coords:     44.500000     19.700000      3.100000, Make: null, ID: PKW2_130, Quantity: TEMPERATURE
   251 Coords:     44.500000     19.700000      3.300000, Make: null, ID: PKW2_150, Quantity: TEMPERATURE
   252 Coords:     44.500000     19.700000      3.900000, Make: null, ID: PKW2_210, Quantity: TEMPERATURE


 PLOT3D Information

   Sampling Interval (s)              30.0

   1 Quantity: TEMPERATURE
   2 Quantity: U-VELOCITY
   3 Quantity: V-VELOCITY
   4 Quantity: W-VELOCITY
   5 Quantity: VISIBILITY, Species: SOOT


 Slice File Information, Mesh     1

   Sampling Interval (s)             1.000

   1 Nodes:   0  73  59  59   0  40, Quantity: TEMPERATURE
   2 Nodes:  23  23   0  90   0  40, Quantity: TEMPERATURE
   3 Nodes:  35  35   0  90   0  40, Quantity: TEMPERATURE
   4 Nodes:   0  73   0  90  12  12, Quantity: TEMPERATURE
   5 Nodes:   0  73   0  90  20  20, Quantity: TEMPERATURE
   6 Nodes:   0  73  33  33   0  40, Quantity: TEMPERATURE


 Radiation Model Information

   Number of control angles  104
   Time step increment         3
   Angle increment             5
   Theta band N_phi   Solid angle
     1:        4     0.120
     2:       12     0.114
     3:       16     0.127
     4:       20     0.120
     5:       20     0.120
     6:       16     0.127
     7:       12     0.114
     8:        4     0.120
   Using gray gas absorption.
   Mean beam length  0.100 m
 
 

 Run Time Diagnostics

       Time Step       1   October 13, 2020  16:17:49
       Step Size:    0.112E+00 s, Total Time:       0.11 s
       Pressure Iterations:      1
       Maximum Velocity Error:  0.28E-02 on Mesh   1 at (  27  29   4)
       Maximum Pressure Error:  0.14E-05 on Mesh   1 at (   1   8  40)
       ---------------------------------------------------------------
       Max CFL number:  0.11E-01 at (  30,  60,  35)
       Max divergence:  0.24E-02 at (  18,  47,  20)
       Min divergence: -0.12E-02 at (  16,  46,  24)
       Max VN number:   0.85E-02 at (  64,  28,  33)
       Radiation Loss to Boundaries:        27.673 kW
 
       Time Step       2   October 13, 2020  16:17:50
       Step Size:    0.112E+00 s, Total Time:       0.22 s
       Pressure Iterations:      1
       Maximum Velocity Error:  0.17E-02 on Mesh   1 at (  31  54  12)
       Maximum Pressure Error:  0.91E-04 on Mesh   1 at (  43  47  20)
       ---------------------------------------------------------------
       Max CFL number:  0.11E-01 at (  30,  60,  35)
       Max divergence:  0.55E-02 at (  18,  47,  21)
       Min divergence: -0.11E-02 at (  16,  46,  24)
       Max VN number:   0.85E-02 at (  64,  28,  33)
       Radiation Loss to Boundaries:        27.666 kW
 
       Time Step       3   October 13, 2020  16:17:52
       Step Size:    0.112E+00 s, Total Time:       0.34 s
       Pressure Iterations:      1
       Maximum Velocity Error:  0.14E-02 on Mesh   1 at (  31  65  11)
       Maximum Pressure Error:  0.17E-03 on Mesh   1 at (  55  47  21)
       ---------------------------------------------------------------
       Max CFL number:  0.11E-01 at (  30,  60,  35)
       Max divergence:  0.52E-02 at (  18,  47,  21)
       Min divergence: -0.11E-02 at (  16,  46,  24)
       Max VN number:   0.85E-02 at (  64,  28,  33)
       Radiation Loss to Boundaries:        25.281 kW
 
       Time Step       4   October 13, 2020  16:17:53
       Step Size:    0.112E+00 s, Total Time:       0.45 s
       Pressure Iterations:      1
       Maximum Velocity Error:  0.90E-03 on Mesh   1 at (  18  52  10)
       Maximum Pressure Error:  0.21E-03 on Mesh   1 at (  43  47  22)
       ---------------------------------------------------------------
       Max CFL number:  0.11E-01 at (  30,  60,  35)
       Max divergence:  0.44E-02 at (  32,  31,   8)
       Min divergence: -0.11E-02 at (  16,  46,  24)
       Max VN number:   0.85E-02 at (  64,  28,  33)
       Total Heat Release Rate:              0.996 kW
       Radiation Loss to Boundaries:        25.275 kW
 
       Time Step       5   October 13, 2020  16:17:54
       Step Size:    0.112E+00 s, Total Time:       0.56 s
       Pressure Iterations:      1
       Maximum Velocity Error:  0.67E-03 on Mesh   1 at (  18  52  10)
       Maximum Pressure Error:  0.28E-03 on Mesh   1 at (  43  47  22)
       ---------------------------------------------------------------
       Max CFL number:  0.11E-01 at (  30,  60,  35)
       Max divergence:  0.79E-02 at (  32,  35,   8)
       Min divergence: -0.11E-02 at (  16,  46,  24)
       Max VN number:   0.85E-02 at (  64,  28,  33)
       Total Heat Release Rate:              1.762 kW
       Radiation Loss to Boundaries:        25.268 kW
 
       Time Step       6   October 13, 2020  16:17:56
       Step Size:    0.112E+00 s, Total Time:       0.67 s
       Pressure Iterations:      1
       Maximum Velocity Error:  0.51E-03 on Mesh   1 at (  28  53  10)
       Maximum Pressure Error:  0.59E-03 on Mesh   1 at (  32  32   8)
       ---------------------------------------------------------------
       Max CFL number:  0.11E-01 at (  30,  60,  35)
       Max divergence:  0.10E-01 at (  32,  35,   8)
       Min divergence: -0.11E-02 at (  16,  46,  24)
       Max VN number:   0.85E-02 at (  64,  28,  33)
       Total Heat Release Rate:              2.620 kW
       Radiation Loss to Boundaries:        23.622 kW
 
       Time Step       7   October 13, 2020  16:17:57
       Step Size:    0.112E+00 s, Total Time:       0.78 s
       Pressure Iterations:      1
       Maximum Velocity Error:  0.32E-03 on Mesh   1 at (  41  52  10)
       Maximum Pressure Error:  0.12E-02 on Mesh   1 at (  32  32   8)
       ---------------------------------------------------------------
       Max CFL number:  0.11E-01 at (  30,  60,  35)
       Max divergence:  0.13E-01 at (  32,  35,   8)
       Min divergence: -0.12E-02 at (  28,  47,  21)
       Max VN number:   0.84E-02 at (  64,  28,  33)
       Total Heat Release Rate:              3.428 kW
       Radiation Loss to Boundaries:        23.616 kW
 
       Time Step       8   October 13, 2020  16:17:58
       Step Size:    0.112E+00 s, Total Time:       0.89 s
       Pressure Iterations:      1
       Maximum Velocity Error:  0.33E-03 on Mesh   1 at (   5  46  22)
       Maximum Pressure Error:  0.21E-02 on Mesh   1 at (  32  32   8)
       ---------------------------------------------------------------
       Max CFL number:  0.11E-01 at (  30,  60,  35)
       Max divergence:  0.15E-01 at (  32,  35,   8)
       Min divergence: -0.12E-02 at (  28,  47,  21)
       Max VN number:   0.84E-02 at (  64,  28,  33)
       Total Heat Release Rate:              4.262 kW
       Radiation Loss to Boundaries:        23.609 kW
 
       Time Step       9   October 13, 2020  16:17:59
       Step Size:    0.112E+00 s, Total Time:       1.01 s
       Pressure Iterations:      1
       Maximum Velocity Error:  0.30E-03 on Mesh   1 at (   5  46  22)
       Maximum Pressure Error:  0.27E-02 on Mesh   1 at (  32  32   8)
       ---------------------------------------------------------------
       Max CFL number:  0.11E-01 at (  30,  60,  35)
       Max divergence:  0.17E-01 at (  34,  25,   8)
       Min divergence: -0.12E-02 at (  28,  47,  21)
       Max VN number:   0.84E-02 at (  64,  28,  33)
       Total Heat Release Rate:              4.963 kW
       Radiation Loss to Boundaries:        22.937 kW
 
       Time Step      10   October 13, 2020  16:18:00
       Step Size:    0.112E+00 s, Total Time:       1.12 s
       Pressure Iterations:      1
       Maximum Velocity Error:  0.31E-03 on Mesh   1 at (  32  25   9)
       Maximum Pressure Error:  0.38E-02 on Mesh   1 at (  32  32   8)
       ---------------------------------------------------------------
       Max CFL number:  0.12E-01 at (  37,  35,   8)
       Max divergence:  0.20E-01 at (  33,  33,   8)
       Min divergence: -0.13E-02 at (  66,  47,  22)
       Max VN number:   0.84E-02 at (  64,  28,  33)
       Total Heat Release Rate:              5.690 kW
       Radiation Loss to Boundaries:        22.931 kW
 
       Time Step      20   October 13, 2020  16:18:13
       Step Size:    0.112E+00 s, Total Time:       2.24 s
       Pressure Iterations:      1
       Maximum Velocity Error:  0.26E-01 on Mesh   1 at (  35  32   7)
       Maximum Pressure Error:  0.12E+01 on Mesh   1 at (  35  32   8)
       ---------------------------------------------------------------
       Max CFL number:  0.31E-01 at (  43,  47,  20)
       Max divergence:  0.43E+00 at (  35,  32,   8)
       Min divergence: -0.13E-02 at (  68,  47,  21)
       Max VN number:   0.12E-01 at (  41,  28,   8)
       Total Heat Release Rate:             63.178 kW
       Radiation Loss to Boundaries:        17.548 kW
 
       Time Step      30   October 13, 2020  16:18:25
       Step Size:    0.112E+00 s, Total Time:       3.35 s
       Pressure Iterations:      1
       Maximum Velocity Error:  0.15E-01 on Mesh   1 at (  37  30   7)
       Maximum Pressure Error:  0.45E+00 on Mesh   1 at (  37  30   8)
       ---------------------------------------------------------------
       Max CFL number:  0.19E+00 at (  35,  32,   8)
       Max divergence:  0.36E+00 at (  38,  30,   8)
       Min divergence: -0.45E-01 at (  35,  32,   9)
       Max VN number:   0.74E-01 at (  35,  32,   9)
       Total Heat Release Rate:             30.510 kW
       Radiation Loss to Boundaries:        16.287 kW
 
       Time Step      40   October 13, 2020  16:18:37
       Step Size:    0.112E+00 s, Total Time:       4.47 s
       Pressure Iterations:      1
       Maximum Velocity Error:  0.18E-01 on Mesh   1 at (  36  31  11)
       Maximum Pressure Error:  0.85E+00 on Mesh   1 at (  36  31  10)
       ---------------------------------------------------------------
       Max CFL number:  0.56E+00 at (  35,  32,  10)
       Max divergence:  0.13E+00 at (  37,  26,   8)
       Min divergence: -0.15E+00 at (  37,  30,   9)
       Max VN number:   0.29E+00 at (  35,  33,  10)
       Total Heat Release Rate:             24.795 kW
       Radiation Loss to Boundaries:        18.760 kW
 
       Time Step      50   October 13, 2020  16:18:49
       Step Size:    0.112E+00 s, Total Time:       5.59 s
       Pressure Iterations:      1
       Maximum Velocity Error:  0.11E-01 on Mesh   1 at (  40  31  11)
       Maximum Pressure Error:  0.49E+00 on Mesh   1 at (  39  31  10)
       ---------------------------------------------------------------
       Max CFL number:  0.63E+00 at (  31,  31,  10)
       Max divergence:  0.18E+00 at (  35,  28,   8)
       Min divergence: -0.95E-01 at (  31,  31,  10)
       Max VN number:   0.34E+00 at (  35,  28,   8)
       Total Heat Release Rate:             32.545 kW
       Radiation Loss to Boundaries:        14.849 kW
 
       Time Step      60   October 13, 2020  16:19:02
       Step Size:    0.112E+00 s, Total Time:       6.71 s
       Pressure Iterations:      1
       Maximum Velocity Error:  0.11E-01 on Mesh   1 at (  37  36  11)
       Maximum Pressure Error:  0.27E+00 on Mesh   1 at (  37  29   8)
       ---------------------------------------------------------------
       Max CFL number:  0.60E+00 at (  37,  37,  10)
       Max divergence:  0.17E+00 at (  38,  29,   8)
       Min divergence: -0.63E-01 at (  37,  38,  10)
       Max VN number:   0.30E+00 at (  37,  37,  10)
       Total Heat Release Rate:             38.227 kW
       Radiation Loss to Boundaries:        12.611 kW
 
       Time Step      70   October 13, 2020  16:19:14
       Step Size:    0.112E+00 s, Total Time:       7.83 s
       Pressure Iterations:      1
       Maximum Velocity Error:  0.11E-01 on Mesh   1 at (  30  31  16)
       Maximum Pressure Error:  0.27E+00 on Mesh   1 at (  28  31  14)
       ---------------------------------------------------------------
       Max CFL number:  0.55E+00 at (  40,  32,  10)
       Max divergence:  0.14E+00 at (  37,  30,   8)
       Min divergence: -0.50E-01 at (  40,  32,  10)
       Max VN number:   0.29E+00 at (  41,  32,  10)
       Total Heat Release Rate:             44.874 kW
       Radiation Loss to Boundaries:         8.715 kW
 
       Time Step      80   October 13, 2020  16:19:26
       Step Size:    0.112E+00 s, Total Time:       8.94 s
       Pressure Iterations:      1
       Maximum Velocity Error:  0.17E-01 on Mesh   1 at (  45  31  16)
       Maximum Pressure Error:  0.35E+00 on Mesh   1 at (  32  31   8)
       ---------------------------------------------------------------
       Max CFL number:  0.51E+00 at (  38,  30,   9)
       Max divergence:  0.16E+00 at (  39,  27,   8)
       Min divergence: -0.49E-01 at (  35,  33,   9)
       Max VN number:   0.34E+00 at (  29,  32,  13)
       Total Heat Release Rate:             53.089 kW
       Radiation Loss to Boundaries:         4.915 kW
 
       Time Step      90   October 13, 2020  16:19:39
       Step Size:    0.112E+00 s, Total Time:      10.06 s
       Pressure Iterations:      1
       Maximum Velocity Error:  0.14E-01 on Mesh   1 at (  37  42  16)
       Maximum Pressure Error:  0.55E+00 on Mesh   1 at (  37  34   8)
       ---------------------------------------------------------------
       Max CFL number:  0.55E+00 at (  32,  31,  10)
       Max divergence:  0.19E+00 at (  33,  27,   8)
       Min divergence: -0.58E-01 at (  31,  35,  10)
       Max VN number:   0.36E+00 at (  29,  33,  13)
       Total Heat Release Rate:             58.365 kW
       Radiation Loss to Boundaries:         2.558 kW
 
       Time Step     100   October 13, 2020  16:19:51
       Step Size:    0.112E+00 s, Total Time:      11.18 s
       Pressure Iterations:      1
       Maximum Velocity Error:  0.17E-01 on Mesh   1 at (  45  35  16)
       Maximum Pressure Error:  0.54E+00 on Mesh   1 at (  32  32   8)
       ---------------------------------------------------------------
       Max CFL number:  0.56E+00 at (  32,  31,  10)
       Max divergence:  0.21E+00 at (  33,  27,   8)
       Min divergence: -0.66E-01 at (  41,  35,  10)
       Max VN number:   0.35E+00 at (  42,  34,  13)
       Total Heat Release Rate:             64.191 kW
       Radiation Loss to Boundaries:         0.544 kW
 
       Time Step     200   October 13, 2020  16:21:55
       Step Size:    0.112E+00 s, Total Time:      22.36 s
       Pressure Iterations:      1
       Maximum Velocity Error:  0.15E-01 on Mesh   1 at (  36  31  11)
       Maximum Pressure Error:  0.12E+01 on Mesh   1 at (  40  28   8)
       ---------------------------------------------------------------
       Max CFL number:  0.81E+00 at (  42,  31,  12)
       Max divergence:  0.43E+00 at (  33,  27,   8)
       Min divergence: -0.19E+00 at (  41,  35,  10)
       Max VN number:   0.60E+00 at (  42,  32,  13)
       Total Heat Release Rate:            129.417 kW
       Radiation Loss to Boundaries:       -19.588 kW
 
       Time Step     300   October 13, 2020  16:24:00
       Step Size:    0.929E-01 s, Total Time:      32.68 s
       Pressure Iterations:      1
       Maximum Velocity Error:  0.22E-01 on Mesh   1 at (  33  43  16)
       Maximum Pressure Error:  0.16E+01 on Mesh   1 at (  33  33   8)
       ---------------------------------------------------------------
       Max CFL number:  0.83E+00 at (  30,  47,  15)
       Max divergence:  0.66E+00 at (  39,  27,   8)
       Min divergence: -0.50E+00 at (  37,  30,   9)
       Max VN number:   0.50E+00 at (  42,  32,  13)
       Total Heat Release Rate:            189.661 kW
       Radiation Loss to Boundaries:       -37.466 kW
 
       Time Step     400   October 13, 2020  16:26:05
       Step Size:    0.928E-01 s, Total Time:      41.81 s
       Pressure Iterations:      1
       Maximum Velocity Error:  0.45E-01 on Mesh   1 at (  34  31   7)
       Maximum Pressure Error:  0.55E+01 on Mesh   1 at (  41  33  15)
       ---------------------------------------------------------------
       Max CFL number:  0.99E+00 at (  42,  33,  13)
       Max divergence:  0.81E+00 at (  38,  27,   8)
       Min divergence: -0.12E+01 at (  41,  32,  10)
       Max VN number:   0.74E+00 at (  42,  32,  13)
       Total Heat Release Rate:            246.950 kW
       Radiation Loss to Boundaries:       -58.217 kW
 
       Time Step     500   October 13, 2020  16:28:11
       Step Size:    0.783E-01 s, Total Time:      49.98 s
       Pressure Iterations:      1
       Maximum Velocity Error:  0.34E-01 on Mesh   1 at (  36  26  16)
       Maximum Pressure Error:  0.17E+01 on Mesh   1 at (  32  32   8)
       ---------------------------------------------------------------
       Max CFL number:  0.82E+00 at (  42,  29,  13)
       Max divergence:  0.97E+00 at (  39,  27,   8)
       Min divergence: -0.47E+00 at (  37,  32,   9)
       Max VN number:   0.68E+00 at (  42,  29,  13)
       Total Heat Release Rate:            282.902 kW
       Radiation Loss to Boundaries:       -69.812 kW
 
       Time Step     600   October 13, 2020  16:30:17
       Step Size:    0.678E-01 s, Total Time:      57.71 s
       Pressure Iterations:      2
       Maximum Velocity Error:  0.25E-01 on Mesh   1 at (  38  30   7)
       Maximum Pressure Error:  0.24E+02 on Mesh   1 at (  35  26   8)
       ---------------------------------------------------------------
       Max CFL number:  0.86E+00 at (  42,  31,  13)
       Max divergence:  0.12E+01 at (  33,  26,   8)
       Min divergence: -0.68E+00 at (  35,  31,   9)
       Max VN number:   0.64E+00 at (  42,  32,  13)
       Total Heat Release Rate:            317.142 kW
       Radiation Loss to Boundaries:       -81.751 kW
 
       Time Step     700   October 13, 2020  16:32:24
       Step Size:    0.704E-01 s, Total Time:      64.77 s
       Pressure Iterations:      2
       Maximum Velocity Error:  0.39E-01 on Mesh   1 at (  33  28   7)
       Maximum Pressure Error:  0.21E+02 on Mesh   1 at (  37  25   8)
       ---------------------------------------------------------------
       Max CFL number:  0.86E+00 at (  30,  31,  11)
       Max divergence:  0.30E+01 at (  33,  29,   8)
       Min divergence: -0.53E+00 at (  33,  24,  10)
       Max VN number:   0.55E+00 at (  42,  32,  13)
       Total Heat Release Rate:            383.131 kW
       Radiation Loss to Boundaries:       -99.328 kW
 
       Time Step     800   October 13, 2020  16:34:31
       Step Size:    0.696E-01 s, Total Time:      71.66 s
       Pressure Iterations:      1
       Maximum Velocity Error:  0.97E-01 on Mesh   1 at (  34  29   7)
       Maximum Pressure Error:  0.13E+02 on Mesh   1 at (  32  29   8)
       ---------------------------------------------------------------
       Max CFL number:  0.83E+00 at (  40,  48,  15)
       Max divergence:  0.31E+01 at (  36,  31,   8)
       Min divergence: -0.65E+00 at (  31,  26,  10)
       Max VN number:   0.66E+00 at (  42,  34,  13)
       Total Heat Release Rate:            426.827 kW
       Radiation Loss to Boundaries:      -119.372 kW
 
       Time Step     900   October 13, 2020  16:36:39
       Step Size:    0.670E-01 s, Total Time:      78.33 s
       Pressure Iterations:      2
       Maximum Velocity Error:  0.33E-01 on Mesh   1 at (  40  35   7)
       Maximum Pressure Error:  0.16E+02 on Mesh   1 at (  40  35   8)
       ---------------------------------------------------------------
       Max CFL number:  0.86E+00 at (  38,  37,  10)
       Max divergence:  0.32E+01 at (  40,  35,   8)
       Min divergence: -0.94E+00 at (  38,  38,  10)
       Max VN number:   0.51E+00 at (  42,  33,  13)
       Total Heat Release Rate:            428.395 kW
       Radiation Loss to Boundaries:      -109.899 kW
 
       Time Step    1000   October 13, 2020  16:38:47
       Step Size:    0.659E-01 s, Total Time:      84.82 s
       Pressure Iterations:      2
       Maximum Velocity Error:  0.39E-01 on Mesh   1 at (  35  25   7)
       Maximum Pressure Error:  0.20E+02 on Mesh   1 at (  35  25   8)
       ---------------------------------------------------------------
       Max CFL number:  0.84E+00 at (  31,  46,  15)
       Max divergence:  0.37E+01 at (  36,  28,   8)
       Min divergence: -0.84E+00 at (  35,  28,  10)
       Max VN number:   0.73E+00 at (  42,  34,  13)
       Total Heat Release Rate:            503.909 kW
       Radiation Loss to Boundaries:      -149.018 kW
 
       Time Step    1100   October 13, 2020  16:40:57
       Step Size:    0.590E-01 s, Total Time:      90.79 s
       Pressure Iterations:      2
       Maximum Velocity Error:  0.40E-01 on Mesh   1 at (  38  31   7)
       Maximum Pressure Error:  0.30E+02 on Mesh   1 at (  38  31   8)
       ---------------------------------------------------------------
       Max CFL number:  0.90E+00 at (  42,  31,  13)
       Max divergence:  0.27E+01 at (  33,  28,   8)
       Min divergence: -0.68E+00 at (  43,  31,  13)
       Max VN number:   0.82E+00 at (  42,  31,  13)
       Total Heat Release Rate:            500.129 kW
       Radiation Loss to Boundaries:      -134.152 kW
 
       Time Step    1200   October 13, 2020  16:43:06
       Step Size:    0.650E-01 s, Total Time:      96.76 s
       Pressure Iterations:      2
       Maximum Velocity Error:  0.77E-01 on Mesh   1 at (  33  26   7)
       Maximum Pressure Error:  0.55E+02 on Mesh   1 at (  40  29   8)
       ---------------------------------------------------------------
       Max CFL number:  0.93E+00 at (  31,  26,  10)
       Max divergence:  0.95E+01 at (  38,  28,   8)
       Min divergence: -0.84E+00 at (  31,  26,  10)
       Max VN number:   0.57E+00 at (  42,  34,  13)
       Total Heat Release Rate:            606.214 kW
       Radiation Loss to Boundaries:      -141.441 kW
 
       Time Step    1300   October 13, 2020  16:45:17
       Step Size:    0.515E-01 s, Total Time:     102.74 s
       Pressure Iterations:      2
       Maximum Velocity Error:  0.49E-01 on Mesh   1 at (  37  28   7)
       Maximum Pressure Error:  0.42E+02 on Mesh   1 at (  38  32   8)
       ---------------------------------------------------------------
       Max CFL number:  0.88E+00 at (  42,  33,  13)
       Max divergence:  0.53E+01 at (  38,  33,   8)
       Min divergence: -0.16E+01 at (  31,  26,  10)
       Max VN number:   0.58E+00 at (  42,  34,  13)
       Total Heat Release Rate:            682.894 kW
       Radiation Loss to Boundaries:      -166.249 kW
 
       Time Step    1400   October 13, 2020  16:47:27
       Step Size:    0.538E-01 s, Total Time:     108.48 s
       Pressure Iterations:      2
       Maximum Velocity Error:  0.56E-01 on Mesh   1 at (  34  32   7)
       Maximum Pressure Error:  0.46E+02 on Mesh   1 at (  34  32   8)
       ---------------------------------------------------------------
       Max CFL number:  0.82E+00 at (  42,  32,  13)
       Max divergence:  0.30E+01 at (  36,  25,   8)
       Min divergence: -0.10E+01 at (  35,  28,  10)
       Max VN number:   0.56E+00 at (  42,  32,  13)
       Total Heat Release Rate:            573.784 kW
       Radiation Loss to Boundaries:      -159.453 kW
 
       Time Step    1500   October 13, 2020  16:49:40
       Step Size:    0.460E-01 s, Total Time:     113.90 s
       Pressure Iterations:      3
       Maximum Velocity Error:  0.29E-01 on Mesh   1 at (  34  28   7)
       Maximum Pressure Error:  0.11E+03 on Mesh   1 at (  33  28   8)
       ---------------------------------------------------------------
       Max CFL number:  0.81E+00 at (  42,  32,  13)
       Max divergence:  0.14E+02 at (  34,  28,   8)
       Min divergence: -0.11E+01 at (  35,  27,  10)
       Max VN number:   0.69E+00 at (  42,  32,  13)
       Total Heat Release Rate:            769.938 kW
       Radiation Loss to Boundaries:      -219.580 kW
 
       Time Step    1600   October 13, 2020  16:51:51
       Step Size:    0.508E-01 s, Total Time:     119.33 s
       Pressure Iterations:      2
       Maximum Velocity Error:  0.48E-01 on Mesh   1 at (  36  27   7)
       Maximum Pressure Error:  0.73E+02 on Mesh   1 at (  36  27   8)
       ---------------------------------------------------------------
       Max CFL number:  0.83E+00 at (  41,  34,  13)
       Max divergence:  0.46E+01 at (  36,  27,   8)
       Min divergence: -0.13E+01 at (  42,  34,  13)
       Max VN number:   0.70E+00 at (  42,  35,  13)
       Total Heat Release Rate:            642.404 kW
       Radiation Loss to Boundaries:      -146.343 kW
 
       Time Step    1700   October 13, 2020  16:54:01
       Step Size:    0.475E-01 s, Total Time:     124.40 s
       Pressure Iterations:      2
       Maximum Velocity Error:  0.52E-01 on Mesh   1 at (  34  27   7)
       Maximum Pressure Error:  0.57E+02 on Mesh   1 at (  40  30   8)
       ---------------------------------------------------------------
       Max CFL number:  0.90E+00 at (  41,  31,  10)
       Max divergence:  0.72E+01 at (  40,  30,   8)
       Min divergence: -0.13E+01 at (  41,  31,  13)
       Max VN number:   0.62E+00 at (  42,  30,  13)
       Total Heat Release Rate:            738.074 kW
       Radiation Loss to Boundaries:      -210.493 kW
 
       Time Step    1800   October 13, 2020  16:56:12
       Step Size:    0.429E-01 s, Total Time:     129.19 s
       Pressure Iterations:      2
       Maximum Velocity Error:  0.70E-01 on Mesh   1 at (  36  27   7)
       Maximum Pressure Error:  0.13E+03 on Mesh   1 at (  32  33   8)
       ---------------------------------------------------------------
       Max CFL number:  0.78E+00 at (  42,  32,  12)
       Max divergence:  0.32E+01 at (  41,  31,   8)
       Min divergence: -0.86E+00 at (  36,  27,   8)
       Max VN number:   0.66E+00 at (  42,  33,  13)
       Total Heat Release Rate:            688.694 kW
       Radiation Loss to Boundaries:      -192.590 kW
 
       Time Step    1900   October 13, 2020  16:58:24
       Step Size:    0.461E-01 s, Total Time:     134.16 s
       Pressure Iterations:      2
       Maximum Velocity Error:  0.50E-01 on Mesh   1 at (  35  33   7)
       Maximum Pressure Error:  0.57E+02 on Mesh   1 at (  39  29   8)
       ---------------------------------------------------------------
       Max CFL number:  0.88E+00 at (  41,  31,  13)
       Max divergence:  0.36E+01 at (  41,  32,   8)
       Min divergence: -0.96E+00 at (  40,  31,  10)
       Max VN number:   0.57E+00 at (  42,  33,  13)
       Total Heat Release Rate:            727.225 kW
       Radiation Loss to Boundaries:      -200.281 kW
 
       Time Step    2000   October 13, 2020  17:00:35
       Step Size:    0.505E-01 s, Total Time:     138.98 s
       Pressure Iterations:      2
       Maximum Velocity Error:  0.75E-01 on Mesh   1 at (  34  25   7)
       Maximum Pressure Error:  0.13E+03 on Mesh   1 at (  34  24   8)
       ---------------------------------------------------------------
       Max CFL number:  0.84E+00 at (  31,  29,  10)
       Max divergence:  0.79E+01 at (  34,  25,   8)
       Min divergence: -0.10E+01 at (  40,  33,   8)
       Max VN number:   0.56E+00 at (  42,  32,  13)
       Total Heat Release Rate:            854.716 kW
       Radiation Loss to Boundaries:      -215.368 kW
 
       Time Step    2100   October 13, 2020  17:02:47
       Step Size:    0.515E-01 s, Total Time:     143.90 s
       Pressure Iterations:      2
       Maximum Velocity Error:  0.69E-01 on Mesh   1 at (  39  35   7)
       Maximum Pressure Error:  0.75E+02 on Mesh   1 at (  39  35   8)
       ---------------------------------------------------------------
       Max CFL number:  0.92E+00 at (  38,  37,  10)
       Max divergence:  0.48E+01 at (  31,  28,   8)
       Min divergence: -0.16E+01 at (  38,  38,  10)
       Max VN number:   0.61E+00 at (  31,  30,  15)
       Total Heat Release Rate:            910.279 kW
       Radiation Loss to Boundaries:      -250.098 kW
 
       Time Step    2200   October 13, 2020  17:05:00
       Step Size:    0.438E-01 s, Total Time:     148.34 s
       Pressure Iterations:      2
       Maximum Velocity Error:  0.37E-01 on Mesh   1 at (  39  29   7)
       Maximum Pressure Error:  0.57E+02 on Mesh   1 at (  39  29   8)
       ---------------------------------------------------------------
       Max CFL number:  0.90E+00 at (  30,  29,  12)
       Max divergence:  0.34E+01 at (  40,  31,   8)
       Min divergence: -0.12E+01 at (  33,  27,   9)
       Max VN number:   0.63E+00 at (  29,  29,  13)
       Total Heat Release Rate:            819.817 kW
       Radiation Loss to Boundaries:      -219.954 kW
 
       Time Step    2300   October 13, 2020  17:07:10
       Step Size:    0.489E-01 s, Total Time:     152.85 s
       Pressure Iterations:      2
       Maximum Velocity Error:  0.79E-01 on Mesh   1 at (  34  26   7)
       Maximum Pressure Error:  0.81E+02 on Mesh   1 at (  34  25   8)
       ---------------------------------------------------------------
       Max CFL number:  0.92E+00 at (  41,  47,  15)
       Max divergence:  0.14E+02 at (  34,  26,   8)
       Min divergence: -0.13E+01 at (  39,  37,  10)
       Max VN number:   0.65E+00 at (  42,  34,  13)
       Total Heat Release Rate:            946.227 kW
       Radiation Loss to Boundaries:      -237.936 kW
 
       Time Step    2400   October 13, 2020  17:09:23
       Step Size:    0.342E-01 s, Total Time:     157.25 s
       Pressure Iterations:      2
       Maximum Velocity Error:  0.92E-01 on Mesh   1 at (  34  24   7)
       Maximum Pressure Error:  0.26E+03 on Mesh   1 at (  34  24   8)
       ---------------------------------------------------------------
       Max CFL number:  0.87E+00 at (  42,  32,  12)
       Max divergence:  0.49E+01 at (  33,  25,   8)
       Min divergence: -0.13E+01 at (  34,  24,   8)
       Max VN number:   0.62E+00 at (  42,  33,  13)
       Total Heat Release Rate:            912.031 kW
       Radiation Loss to Boundaries:      -249.027 kW
 
       Time Step    2500   October 13, 2020  17:11:35
       Step Size:    0.430E-01 s, Total Time:     161.55 s
       Pressure Iterations:      3
       Maximum Velocity Error:  0.44E-01 on Mesh   1 at (  32  24   8)
       Maximum Pressure Error:  0.20E+03 on Mesh   1 at (  34  24   8)
       ---------------------------------------------------------------
       Max CFL number:  0.86E+00 at (  38,  38,  10)
       Max divergence:  0.10E+02 at (  34,  25,   8)
       Min divergence: -0.12E+01 at (  40,  33,  10)
       Max VN number:   0.49E+00 at (  41,  33,  15)
       Total Heat Release Rate:           1038.881 kW
       Radiation Loss to Boundaries:      -278.531 kW
 
       Time Step    2600   October 13, 2020  17:13:49
       Step Size:    0.420E-01 s, Total Time:     165.99 s
       Pressure Iterations:      5
       Maximum Velocity Error:  0.61E-01 on Mesh   1 at (  40  36   7)
       Maximum Pressure Error:  0.47E+03 on Mesh   1 at (  39  36   8)
       ---------------------------------------------------------------
       Max CFL number:  0.83E+00 at (  39,  37,  10)
       Max divergence:  0.85E+01 at (  35,  24,   8)
       Min divergence: -0.60E+01 at (  39,  36,   9)
       Max VN number:   0.66E+00 at (  39,  36,   8)
       Total Heat Release Rate:           1044.795 kW
       Radiation Loss to Boundaries:      -355.411 kW
 
       Time Step    2700   October 13, 2020  17:16:02
       Step Size:    0.414E-01 s, Total Time:     170.36 s
       Pressure Iterations:      3
       Maximum Velocity Error:  0.37E-01 on Mesh   1 at (  33  26   7)
       Maximum Pressure Error:  0.33E+03 on Mesh   1 at (  33  26   8)
       ---------------------------------------------------------------
       Max CFL number:  0.88E+00 at (  42,  32,  12)
       Max divergence:  0.78E+01 at (  35,  25,   8)
       Min divergence: -0.12E+01 at (  31,  26,  10)
       Max VN number:   0.61E+00 at (  33,  26,   8)
       Total Heat Release Rate:            990.962 kW
       Radiation Loss to Boundaries:      -271.011 kW
 
       Time Step    2800   October 13, 2020  17:18:14
       Step Size:    0.423E-01 s, Total Time:     174.49 s
       Pressure Iterations:      2
       Maximum Velocity Error:  0.54E-01 on Mesh   1 at (  37  26   7)
       Maximum Pressure Error:  0.70E+02 on Mesh   1 at (  39  35   8)
       ---------------------------------------------------------------
       Max CFL number:  0.85E+00 at (  42,  33,  13)
       Max divergence:  0.65E+01 at (  34,  27,   8)
       Min divergence: -0.12E+01 at (  31,  26,  10)
       Max VN number:   0.74E+00 at (  42,  33,  13)
       Total Heat Release Rate:            972.788 kW
       Radiation Loss to Boundaries:      -236.635 kW
 
