
 Fire Dynamics Simulator

 Current Date     : October 13, 2020  17:37:43
 Revision         : FDS6.7.5-254-g2178300-master
 Revision Date    : Fri Oct 9 15:16:47 2020 -0400
 Compiler         : Intel ifort 18.0.1
 Compilation Date : Oct 12, 2020 10:43:49

 MPI Enabled;    Number of MPI Processes:       2
 OpenMP Enabled; Number of OpenMP Threads:      4

 MPI version: 3.1
 MPI library version: Intel(R) MPI Library 2018 Update 1 for Linux* OS


 Job TITLE        : 
 Job ID string    : fft_mesh2_solid


 Grid Dimensions, Mesh     1

   Cells in the X Direction            78
   Cells in the Y Direction            60
   Cells in the Z Direction            40
   Number of Grid Cells            187200


 Physical Dimensions, Mesh     1

   Length (m)                      15.600
   Width  (m)                      12.000
   Height (m)                       8.000
   Initial Time Step (s)            0.112

 Grid Dimensions, Mesh     2

   Cells in the X Direction            90
   Cells in the Y Direction            60
   Cells in the Z Direction            40
   Number of Grid Cells            216000


 Physical Dimensions, Mesh     2

   Length (m)                      18.000
   Width  (m)                      12.000
   Height (m)                       8.000
   Initial Time Step (s)            0.112

Total Number of Grid Cells        403200


 Miscellaneous Parameters

   Simulation Start Time (s)          0.0
   Simulation End Time (s)         5400.0
   LES Calculation
   Eddy Viscosity:           Deardorff Model (C_DEARDORFF = 0.10)
   Near-wall Eddy Viscosity: Smagorinsky with Van Driest damping (C_SMAGORINSKY = 0.20)
   Turbulent Prandtl Number:         0.50
   Turbulent Schmidt Number:         0.50
   Ambient Temperature (C):         20.00


 Mass Fraction Transformation Matrix to Convert Species Mixtures (Columns) to Primitive Species (Rows)

                         AIR       REAC_FUE  PRODUCTS
   REAC_FUEL             0.000000  1.000000  0.000000
   NITROGEN              0.762470  0.000000  0.702658
   OXYGEN                0.230997  0.000000  0.000000
   CARBON DIOXIDE        0.000591  0.000000  0.213555
   CARBON MONOXIDE       0.000000  0.000000  0.000000
   WATER VAPOR           0.005941  0.000000  0.076457
   SOOT                  0.000000  0.000000  0.007330
   HYDROGEN              0.000000  0.000000  0.000000


 Primitive Species Information

   REAC_FUEL
   Gas Species
   Molecular Weight (g/mol)            14.95845
   Ambient Density (kg/m^3)            0.622
   Enthalpy of Formation (J/kg)       -9.27E+06

   NITROGEN
   Gas Species
   Molecular Weight (g/mol)            28.01340
   Ambient Density (kg/m^3)            1.165
   Enthalpy of Formation (J/kg)        0.00E+00

   OXYGEN
   Gas Species
   Molecular Weight (g/mol)            31.99880
   Ambient Density (kg/m^3)            1.330
   Enthalpy of Formation (J/kg)        0.00E+00

   CARBON DIOXIDE
   Gas Species
   Molecular Weight (g/mol)            44.00950
   Ambient Density (kg/m^3)            1.830
   Enthalpy of Formation (J/kg)       -8.94E+06

   CARBON MONOXIDE
   Gas Species
   Molecular Weight (g/mol)            28.01010
   Ambient Density (kg/m^3)            1.164
   Enthalpy of Formation (J/kg)       -3.95E+06

   WATER VAPOR
   Gas Species
   Molecular Weight (g/mol)            18.01528
   Ambient Density (kg/m^3)            0.749
   Enthalpy of Formation (J/kg)       -1.34E+07

   SOOT
   Gas Species
   Molecular Weight (g/mol)            10.91042
   Ambient Density (kg/m^3)            0.454
   Enthalpy of Formation (J/kg)        0.00E+00

   HYDROGEN
   Gas Species
   Molecular Weight (g/mol)             2.01588
   Ambient Density (kg/m^3)            0.084
   Enthalpy of Formation (J/kg)        0.00E+00


 Tracked (Lumped) Species Information

   AIR
   Molecular Weight (g/mol)            28.75199
   Ambient Density (kg/m^3)            1.195
   Initial Mass Fraction               1.000
   Enthalpy of Formation (J/kg)     -8.50E+04

   Sub Species                    Mass Fraction     Mole Fraction
   NITROGEN                       7.624701E-01      7.825730E-01
   OXYGEN                         2.309974E-01      2.075589E-01
   CARBON DIOXIDE                 5.914651E-04      3.864120E-04
   WATER VAPOR                    5.940984E-03      9.481679E-03
 
     Viscosity (kg/m/s) Ambient,  293 K:  1.80E-05
                                  500 K:  2.61E-05
                                 1000 K:  4.13E-05
                                 1500 K:  5.37E-05
   Therm. Cond. (W/m/K) Ambient,  293 K:  2.56E-02
                                  500 K:  3.81E-02
                                 1000 K:  6.69E-02
                                 1500 K:  9.25E-02
        Enthalpy (J/kg) Ambient,  293 K: -9.01E+04
                                  500 K:  1.22E+05
                                 1000 K:  6.72E+05
                                 1500 K:  1.27E+06
    Spec. Heat (J/kg/K) Ambient,  293 K:  1.02E+03
                                  500 K:  1.04E+03
                                 1000 K:  1.16E+03
                                 1500 K:  1.23E+03
   Diff. Coeff. (m^2/s) Ambient,  293 K:  1.99E-05
                                  500 K:  4.96E-05
                                 1000 K:  1.58E-04
                                 1500 K:  3.09E-04

   REAC_FUEL
   Molecular Weight (g/mol)            14.95845
   Ambient Density (kg/m^3)            0.622
   Initial Mass Fraction               0.000
   Enthalpy of Formation (J/kg)     -9.27E+06

   Sub Species                    Mass Fraction     Mole Fraction
   REAC_FUEL                      1.000000E+00      1.000000E+00
 
     Viscosity (kg/m/s) Ambient,  293 K:  1.27E-05
                                  500 K:  1.84E-05
                                 1000 K:  2.89E-05
                                 1500 K:  3.75E-05
   Therm. Cond. (W/m/K) Ambient,  293 K:  3.48E-02
                                  500 K:  5.03E-02
                                 1000 K:  7.91E-02
                                 1500 K:  1.03E-01
        Enthalpy (J/kg) Ambient,  293 K: -9.28E+06
                                  500 K: -8.87E+06
                                 1000 K: -7.90E+06
                                 1500 K: -6.93E+06
    Spec. Heat (J/kg/K) Ambient,  293 K:  1.95E+03
                                  500 K:  1.95E+03
                                 1000 K:  1.95E+03
                                 1500 K:  1.95E+03
   Diff. Coeff. (m^2/s) Ambient,  293 K:  2.38E-05
                                  500 K:  5.91E-05
                                 1000 K:  1.88E-04
                                 1500 K:  3.68E-04

   PRODUCTS
   Molecular Weight (g/mol)            28.69337
   Ambient Density (kg/m^3)            1.193
   Initial Mass Fraction               0.000
   Enthalpy of Formation (J/kg)     -2.94E+06

   Sub Species                    Mass Fraction     Mole Fraction
   NITROGEN                       7.026583E-01      7.197139E-01
   CARBON DIOXIDE                 2.135546E-01      1.392336E-01
   CARBON MONOXIDE                0.000000E+00      0.000000E+00
   WATER VAPOR                    7.645708E-02      1.217750E-01
   SOOT                           7.330093E-03      1.927744E-02
 
     Viscosity (kg/m/s) Ambient,  293 K:  1.62E-05
                                  500 K:  2.40E-05
                                 1000 K:  3.89E-05
                                 1500 K:  5.12E-05
   Therm. Cond. (W/m/K) Ambient,  293 K:  2.32E-02
                                  500 K:  3.61E-02
                                 1000 K:  6.68E-02
                                 1500 K:  9.51E-02
        Enthalpy (J/kg) Ambient,  293 K: -2.94E+06
                                  500 K: -2.72E+06
                                 1000 K: -2.12E+06
                                 1500 K: -1.45E+06
    Spec. Heat (J/kg/K) Ambient,  293 K:  1.06E+03
                                  500 K:  1.12E+03
                                 1000 K:  1.27E+03
                                 1500 K:  1.37E+03
   Diff. Coeff. (m^2/s) Ambient,  293 K:  1.95E-05
                                  500 K:  4.92E-05
                                 1000 K:  1.58E-04
                                 1500 K:  3.11E-04


 Gas Phase Reaction Information

   Mischbrandlast aus:		40% Polyethylen,30% Styropor, 30% Polyurethan

   Reaction ID:  Reaction1

   Fuel                                           Heat of Combustion (kJ/kg)
   REAC_FUEL                                                      25820.0000

   Stoichiometry

   Primitive Species Stoich. Coeff.
   Species ID                                                          Molar
   REAC_FUEL                                                       -1.000000
   NITROGEN                                                         0.015000
   OXYGEN                                                          -1.217862
   CARBON DIOXIDE                                                   0.888947
   WATER VAPOR                                                      0.723830
   SOOT                                                             0.123392

   Tracked (Lumped) Species Stoich. Coeff.
   Species ID                                             Molar         Mass
   AIR                                                -5.867550   -11.278153
   REAC_FUEL                                          -1.000000    -1.000000
   PRODUCTS                                            6.400858    12.278153

   Reaction Kinetics

   Arrhenius Parameters
   Pre-exponential:    Infinite
   Activation Energy:  N/A

   ODE Solver:  EXPLICIT EULER
   Extinction Model:  EXTINCTION 2
   Auto-Ignition Temperature (K):       0.0
   Critical Flame Temperature (K):   1700.2


 Material Information

   1 CONCRETE                                                    
     Stahlbeton C30-C37 WU
     Emissivity                      0.900
     Density (kg/m3)                2400.0
     Specific Heat (kJ/kg/K)      1.00E+00
     Conductivity (W/m/K)          2.10E+00

   2 STEEL                                                       
     Drysdale, Intro to Fire Dynamics - ATF NIST Multi-Floor Validation
     Emissivity                     95.000
     Density (kg/m3)                7850.0
     Specific Heat (kJ/kg/K)      4.60E-01
     Conductivity (W/m/K)          4.58E+01

   3 STEEL03                                                     
     Drysdale, Intro to Fire Dynamics - ATF NIST Multi-Floor Validation
     Emissivity                      0.950
     Density (kg/m3)                7850.0
     Specific Heat (kJ/kg/K)      4.60E-01
     Conductivity (W/m/K)          4.58E+01


 Surface Conditions

   0 INERT (DEFAULT)

   1 ADIABATIC

   2 BETON
     Material List
          1  CONCRETE
     Layer  1
        Thickness   (m):  0.10000
        Density (kg/m3):  2400.00
        CONCRETE, Mass fraction:    1.00
     Total surface density   240.000 kg/m2
     Reaction products considered from the first  0.50 layers.
     Solid Phase Node, Layer, Coordinates(m):
                    0      1       0.0000000
                    1      1       0.0007937
                    2      1       0.0023810
                    3      1       0.0055556
                    4      1       0.0119048
                    5      1       0.0246032
                    6      1       0.0500000
                    7      1       0.0753968
                    8      1       0.0880952
                    9      1       0.0944444
                   10      1       0.0976190
                   11      1       0.0992063
                   12      1       0.1000000
     Exposed Backing

   3 STAHL
     Material List
          1  STEEL
     Layer  1
        Thickness   (m):  0.05000
        Density (kg/m3):  7850.00
        STEEL, Mass fraction:    1.00
     Total surface density   392.500 kg/m2
     Reaction products considered from the first  0.50 layers.
     Solid Phase Node, Layer, Coordinates(m):
                    0      1       0.0000000
                    1      1       0.0022727
                    2      1       0.0068182
                    3      1       0.0159091
                    4      1       0.0340909
                    5      1       0.0431818
                    6      1       0.0477273
                    7      1       0.0500000
     Exposed Backing

   4 CAR_BODY02
     Properties completely fabricated
     Material List
          1  STEEL03
     Layer  1
        Thickness   (m):  0.00120
        Density (kg/m3):  7850.00
        STEEL03, Mass fraction:    1.00
     Total surface density     9.420 kg/m2
     Reaction products considered from the first  0.50 layers.
     Solid Phase Node, Layer, Coordinates(m):
                    0      1       0.0000000
                    1      1       0.0012000
     Exposed Backing

   5 BURNER1_PKW1
     HRR Per Unit Area (kW/m2)       1921.3
     REAC_FUEL Mass Flux (kg/s/m2)   7.44E-02

   6 BURNER2_VAN
     HRR Per Unit Area (kW/m2)       3846.2
     REAC_FUEL Mass Flux (kg/s/m2)   1.49E-01

   7 BURNER3_PKW2
     HRR Per Unit Area (kW/m2)       1921.3
     REAC_FUEL Mass Flux (kg/s/m2)   7.44E-02

   8 BURNER4_PKW3
     HRR Per Unit Area (kW/m2)       1921.3
     REAC_FUEL Mass Flux (kg/s/m2)   7.44E-02

   9 OPEN
     Passive Vent to Atmosphere

  10 MIRROR
     Symmetry Plane

  11 INTERPOLATED

  12 PERIODIC

  13 HVAC

  14 MASSLESS TRACER

  15 DROPLET

  16 EVACUATION_OUTFLOW
     Normal Velocity (m/s)         0.000

  17 MASSLESS TARGET

  18 PERIODIC FLOW ONLY


 Cut-off Density and Temperature

    Minimum Temperature:   -10.0 C
    Maximum Temperature:  2726.8 C
    Minimum Density:  1.195E-01 kg/m3
    Maximum Density:  2.663E+00 kg/m3


 Device Coordinates

     1 Coords:     38.100000     16.500000      1.500000, Make: null, ID: SZ2_SM_-3/0_2_110, Quantity: ADIABATIC SURFACE TEMPERATURE
     2 Coords:     38.300000     16.700000      1.500000, Make: null, ID: SZ2_SM_-3/0_3_110, Quantity: ADIABATIC SURFACE TEMPERATURE
     3 Coords:     37.900000     16.700000      1.500000, Make: null, ID: SZ2_SM_-3/0_4_110, Quantity: ADIABATIC SURFACE TEMPERATURE
     4 Coords:     38.100000     16.500000      1.700000, Make: null, ID: SZ2_SM_-3/0_2_130, Quantity: ADIABATIC SURFACE TEMPERATURE
     5 Coords:     38.300000     16.700000      1.700000, Make: null, ID: SZ2_SM_-3/0_3_130, Quantity: ADIABATIC SURFACE TEMPERATURE
     6 Coords:     37.900000     16.700000      1.700000, Make: null, ID: SZ2_SM_-3/0_4_130, Quantity: ADIABATIC SURFACE TEMPERATURE
     7 Coords:     38.100000     16.900000      1.900000, Make: null, ID: SZ2_SM_-3/0_1_150, Quantity: ADIABATIC SURFACE TEMPERATURE
     8 Coords:     38.100000     16.500000      1.900000, Make: null, ID: SZ2_SM_-3/0_2_150, Quantity: ADIABATIC SURFACE TEMPERATURE
     9 Coords:     38.300000     16.700000      1.900000, Make: null, ID: SZ2_SM_-3/0_3_150, Quantity: ADIABATIC SURFACE TEMPERATURE
    10 Coords:     37.900000     16.700000      1.900000, Make: null, ID: SZ2_SM_-3/0_4_150, Quantity: ADIABATIC SURFACE TEMPERATURE
    11 Coords:     38.100000     16.900000      2.700000, Make: null, ID: SZ2_SM_-3/0_1_230, Quantity: ADIABATIC SURFACE TEMPERATURE
    12 Coords:     38.300000     16.700000      2.700000, Make: null, ID: SZ2_SM_-3/0_3_230, Quantity: ADIABATIC SURFACE TEMPERATURE
    13 Coords:     37.900000     16.700000      2.700000, Make: null, ID: SZ2_SM_-3/0_4_230, Quantity: ADIABATIC SURFACE TEMPERATURE
    14 Coords:     38.100000     16.900000      3.300000, Make: null, ID: SZ2_SM_-3/0_1_290, Quantity: ADIABATIC SURFACE TEMPERATURE
    15 Coords:     38.100000     16.500000      3.300000, Make: null, ID: SZ2_SM_-3/0_2_290, Quantity: ADIABATIC SURFACE TEMPERATURE
    16 Coords:     38.100000     16.900000      3.500000, Make: null, ID: SZ2_SM_-3/0_1_310, Quantity: ADIABATIC SURFACE TEMPERATURE
    17 Coords:     38.100000     16.500000      3.500000, Make: null, ID: SZ2_SM_-3/0_2_310, Quantity: ADIABATIC SURFACE TEMPERATURE
    18 Coords:     38.100000     16.900000      3.700000, Make: null, ID: SZ2_SM_-3/0_1_330, Quantity: ADIABATIC SURFACE TEMPERATURE
    19 Coords:     38.100000     16.500000      3.700000, Make: null, ID: SZ2_SM_-3/0_2_330, Quantity: ADIABATIC SURFACE TEMPERATURE
    20 Coords:     38.100000     16.500000      4.300000, Make: null, ID: SZ2_SM_-3/0_2_390, Quantity: ADIABATIC SURFACE TEMPERATURE
    21 Coords:     40.700000     16.500000      1.500000, Make: null, ID: SZ2_SM_-2/0_2_110, Quantity: ADIABATIC SURFACE TEMPERATURE
    22 Coords:     40.900000     16.700000      1.500000, Make: null, ID: SZ2_SM_-2/0_3_110, Quantity: ADIABATIC SURFACE TEMPERATURE
    23 Coords:     40.500000     16.700000      1.500000, Make: null, ID: SZ2_SM_-2/0_4_110, Quantity: ADIABATIC SURFACE TEMPERATURE
    24 Coords:     40.700000     16.500000      1.700000, Make: null, ID: SZ2_SM_-2/0_2_130, Quantity: ADIABATIC SURFACE TEMPERATURE
    25 Coords:     40.900000     16.700000      1.700000, Make: null, ID: SZ2_SM_-2/0_3_130, Quantity: ADIABATIC SURFACE TEMPERATURE
    26 Coords:     40.500000     16.700000      1.700000, Make: null, ID: SZ2_SM_-2/0_4_130, Quantity: ADIABATIC SURFACE TEMPERATURE
    27 Coords:     40.700000     16.900000      1.900000, Make: null, ID: SZ2_SM_-2/0_1_150, Quantity: ADIABATIC SURFACE TEMPERATURE
    28 Coords:     40.700000     16.500000      1.900000, Make: null, ID: SZ2_SM_-2/0_2_150, Quantity: ADIABATIC SURFACE TEMPERATURE
    29 Coords:     40.900000     16.700000      1.900000, Make: null, ID: SZ2_SM_-2/0_3_150, Quantity: ADIABATIC SURFACE TEMPERATURE
    30 Coords:     40.500000     16.700000      1.900000, Make: null, ID: SZ2_SM_-2/0_4_150, Quantity: ADIABATIC SURFACE TEMPERATURE
    31 Coords:     40.700000     16.900000      2.700000, Make: null, ID: SZ2_SM_-2/0_1_230, Quantity: ADIABATIC SURFACE TEMPERATURE
    32 Coords:     40.900000     16.700000      2.700000, Make: null, ID: SZ2_SM_-2/0_3_230, Quantity: ADIABATIC SURFACE TEMPERATURE
    33 Coords:     40.500000     16.700000      2.700000, Make: null, ID: SZ2_SM_-2/0_4_230, Quantity: ADIABATIC SURFACE TEMPERATURE
    34 Coords:     40.700000     16.900000      3.300000, Make: null, ID: SZ2_SM_-2/0_1_290, Quantity: ADIABATIC SURFACE TEMPERATURE
    35 Coords:     40.700000     16.500000      3.300000, Make: null, ID: SZ2_SM_-2/0_2_290, Quantity: ADIABATIC SURFACE TEMPERATURE
    36 Coords:     40.700000     16.900000      3.500000, Make: null, ID: SZ2_SM_-2/0_1_310, Quantity: ADIABATIC SURFACE TEMPERATURE
    37 Coords:     40.700000     16.500000      3.500000, Make: null, ID: SZ2_SM_-2/0_2_310, Quantity: ADIABATIC SURFACE TEMPERATURE
    38 Coords:     40.700000     16.900000      3.700000, Make: null, ID: SZ2_SM_-2/0_1_330, Quantity: ADIABATIC SURFACE TEMPERATURE
    39 Coords:     40.700000     16.500000      3.700000, Make: null, ID: SZ2_SM_-2/0_2_330, Quantity: ADIABATIC SURFACE TEMPERATURE
    40 Coords:     40.700000     16.500000      4.300000, Make: null, ID: SZ2_SM_-2/0_2_390, Quantity: ADIABATIC SURFACE TEMPERATURE
    41 Coords:     43.100000     16.500000      1.500000, Make: null, ID: SZ2_SM_-1/0_2_110, Quantity: ADIABATIC SURFACE TEMPERATURE
    42 Coords:     42.900000     16.700000      1.500000, Make: null, ID: SZ2_SM_-1/0_4_110, Quantity: ADIABATIC SURFACE TEMPERATURE
    43 Coords:     43.300000     16.700000      1.500000, Make: null, ID: SZ2_SM_-1/0_3_110, Quantity: ADIABATIC SURFACE TEMPERATURE
    44 Coords:     43.100000     16.500000      1.700000, Make: null, ID: SZ2_SM_-1/0_2_130, Quantity: ADIABATIC SURFACE TEMPERATURE
    45 Coords:     43.300000     16.700000      1.700000, Make: null, ID: SZ2_SM_-1/0_3_130, Quantity: ADIABATIC SURFACE TEMPERATURE
    46 Coords:     42.900000     16.700000      1.700000, Make: null, ID: SZ2_SM_-1/0_4_130, Quantity: ADIABATIC SURFACE TEMPERATURE
    47 Coords:     43.100000     16.900000      1.900000, Make: null, ID: SZ2_SM_-1/0_1_150, Quantity: ADIABATIC SURFACE TEMPERATURE
    48 Coords:     43.100000     16.500000      1.900000, Make: null, ID: SZ2_SM_-1/0_2_150, Quantity: ADIABATIC SURFACE TEMPERATURE
    49 Coords:     43.300000     16.700000      1.900000, Make: null, ID: SZ2_SM_-1/0_3_150, Quantity: ADIABATIC SURFACE TEMPERATURE
    50 Coords:     42.900000     16.700000      1.900000, Make: null, ID: SZ2_SM_-1/0_4_150, Quantity: ADIABATIC SURFACE TEMPERATURE
    51 Coords:     43.100000     16.900000      2.700000, Make: null, ID: SZ2_SM_-1/0_1_230, Quantity: ADIABATIC SURFACE TEMPERATURE
    52 Coords:     43.300000     16.700000      2.700000, Make: null, ID: SZ2_SM_-1/0_3_230, Quantity: ADIABATIC SURFACE TEMPERATURE
    53 Coords:     42.900000     16.700000      2.700000, Make: null, ID: SZ2_SM_-1/0_4_230, Quantity: ADIABATIC SURFACE TEMPERATURE
    54 Coords:     43.100000     16.900000      3.300000, Make: null, ID: SZ2_SM_-1/0_1_290, Quantity: ADIABATIC SURFACE TEMPERATURE
    55 Coords:     43.100000     16.500000      3.300000, Make: null, ID: SZ2_SM_-1/0_2_290, Quantity: ADIABATIC SURFACE TEMPERATURE
    56 Coords:     43.100000     16.900000      3.500000, Make: null, ID: SZ2_SM_-1/0_1_310, Quantity: ADIABATIC SURFACE TEMPERATURE
    57 Coords:     43.100000     16.500000      3.500000, Make: null, ID: SZ2_SM_-1/0_2_310, Quantity: ADIABATIC SURFACE TEMPERATURE
    58 Coords:     43.100000     16.900000      3.700000, Make: null, ID: SZ2_SM_-1/0_1_330, Quantity: ADIABATIC SURFACE TEMPERATURE
    59 Coords:     43.100000     16.500000      3.700000, Make: null, ID: SZ2_SM_-1/0_2_330, Quantity: ADIABATIC SURFACE TEMPERATURE
    60 Coords:     43.100000     16.500000      4.300000, Make: null, ID: SZ2_SM_-1/0_2_390, Quantity: ADIABATIC SURFACE TEMPERATURE
    61 Coords:     45.700000     16.500000      1.500000, Make: null, ID: SZ2_SM_1/0_2_110, Quantity: ADIABATIC SURFACE TEMPERATURE
    62 Coords:     45.900000     16.700000      1.500000, Make: null, ID: SZ2_SM_1/0_3_110, Quantity: ADIABATIC SURFACE TEMPERATURE
    63 Coords:     45.500000     16.700000      1.500000, Make: null, ID: SZ2_SM_1/0_4_110, Quantity: ADIABATIC SURFACE TEMPERATURE
    64 Coords:     45.700000     16.500000      1.700000, Make: null, ID: SZ2_SM_1/0_2_130, Quantity: ADIABATIC SURFACE TEMPERATURE
    65 Coords:     45.900000     16.700000      1.700000, Make: null, ID: SZ2_SM_1/0_3_130, Quantity: ADIABATIC SURFACE TEMPERATURE
    66 Coords:     45.500000     16.700000      1.700000, Make: null, ID: SZ2_SM_1/0_4_130, Quantity: ADIABATIC SURFACE TEMPERATURE
    67 Coords:     45.700000     16.900000      1.900000, Make: null, ID: SZ2_SM_1/0_1_150, Quantity: ADIABATIC SURFACE TEMPERATURE
    68 Coords:     45.700000     16.500000      1.900000, Make: null, ID: SZ2_SM_1/0_2_150, Quantity: ADIABATIC SURFACE TEMPERATURE
    69 Coords:     45.900000     16.700000      1.900000, Make: null, ID: SZ2_SM_1/0_3_150, Quantity: ADIABATIC SURFACE TEMPERATURE
    70 Coords:     45.500000     16.700000      1.900000, Make: null, ID: SZ2_SM_1/0_4_150, Quantity: ADIABATIC SURFACE TEMPERATURE
    71 Coords:     45.700000     16.900000      2.700000, Make: null, ID: SZ2_SM_1/0_1_230, Quantity: ADIABATIC SURFACE TEMPERATURE
    72 Coords:     45.900000     16.700000      2.700000, Make: null, ID: SZ2_SM_1/0_3_230, Quantity: ADIABATIC SURFACE TEMPERATURE
    73 Coords:     45.500000     16.700000      2.700000, Make: null, ID: SZ2_SM_1/0_4_230, Quantity: ADIABATIC SURFACE TEMPERATURE
    74 Coords:     45.700000     16.900000      3.300000, Make: null, ID: SZ2_SM_1/0_1_290, Quantity: ADIABATIC SURFACE TEMPERATURE
    75 Coords:     45.700000     16.500000      3.300000, Make: null, ID: SZ2_SM_1/0_2_290, Quantity: ADIABATIC SURFACE TEMPERATURE
    76 Coords:     45.700000     16.900000      3.500000, Make: null, ID: SZ2_SM_1/0_1_310, Quantity: ADIABATIC SURFACE TEMPERATURE
    77 Coords:     45.700000     16.500000      3.500000, Make: null, ID: SZ2_SM_1/0_2_310, Quantity: ADIABATIC SURFACE TEMPERATURE
    78 Coords:     45.700000     16.900000      3.700000, Make: null, ID: SZ2_SM_1/0_1_330, Quantity: ADIABATIC SURFACE TEMPERATURE
    79 Coords:     45.700000     16.500000      3.700000, Make: null, ID: SZ2_SM_1/0_2_330, Quantity: ADIABATIC SURFACE TEMPERATURE
    80 Coords:     45.700000     16.500000      4.300000, Make: null, ID: SZ2_SM_1/0_2_390, Quantity: ADIABATIC SURFACE TEMPERATURE
    81 Coords:     48.100000     16.500000      1.500000, Make: null, ID: SZ2_SM_2/0_2_110, Quantity: ADIABATIC SURFACE TEMPERATURE
    82 Coords:     48.300000     16.700000      1.500000, Make: null, ID: SZ2_SM_2/0_3_110, Quantity: ADIABATIC SURFACE TEMPERATURE
    83 Coords:     47.900000     16.700000      1.500000, Make: null, ID: SZ2_SM_2/0_4_110, Quantity: ADIABATIC SURFACE TEMPERATURE
    84 Coords:     48.100000     16.500000      1.700000, Make: null, ID: SZ2_SM_2/0_2_130, Quantity: ADIABATIC SURFACE TEMPERATURE
    85 Coords:     48.300000     16.700000      1.700000, Make: null, ID: SZ2_SM_2/0_3_130, Quantity: ADIABATIC SURFACE TEMPERATURE
    86 Coords:     47.900000     16.700000      1.700000, Make: null, ID: SZ2_SM_2/0_4_130, Quantity: ADIABATIC SURFACE TEMPERATURE
    87 Coords:     48.100000     16.900000      1.900000, Make: null, ID: SZ2_SM_2/0_1_150, Quantity: ADIABATIC SURFACE TEMPERATURE
    88 Coords:     48.100000     16.500000      1.900000, Make: null, ID: SZ2_SM_2/0_2_150, Quantity: ADIABATIC SURFACE TEMPERATURE
    89 Coords:     48.300000     16.700000      1.900000, Make: null, ID: SZ2_SM_2/0_3_150, Quantity: ADIABATIC SURFACE TEMPERATURE
    90 Coords:     47.900000     16.700000      1.900000, Make: null, ID: SZ2_SM_2/0_4_150, Quantity: ADIABATIC SURFACE TEMPERATURE
    91 Coords:     48.100000     16.900000      2.700000, Make: null, ID: SZ2_SM_2/0_1_230, Quantity: ADIABATIC SURFACE TEMPERATURE
    92 Coords:     48.300000     16.700000      2.700000, Make: null, ID: SZ2_SM_2/0_3_230, Quantity: ADIABATIC SURFACE TEMPERATURE
    93 Coords:     47.900000     16.700000      2.700000, Make: null, ID: SZ2_SM_2/0_4_230, Quantity: ADIABATIC SURFACE TEMPERATURE
    94 Coords:     48.100000     16.900000      3.300000, Make: null, ID: SZ2_SM_2/0_1_290, Quantity: ADIABATIC SURFACE TEMPERATURE
    95 Coords:     48.100000     16.500000      3.300000, Make: null, ID: SZ2_SM_2/0_2_290, Quantity: ADIABATIC SURFACE TEMPERATURE
    96 Coords:     48.100000     16.900000      3.500000, Make: null, ID: SZ2_SM_2/0_1_310, Quantity: ADIABATIC SURFACE TEMPERATURE
    97 Coords:     48.100000     16.500000      3.500000, Make: null, ID: SZ2_SM_2/0_2_310, Quantity: ADIABATIC SURFACE TEMPERATURE
    98 Coords:     48.100000     16.900000      3.700000, Make: null, ID: SZ2_SM_2/0_1_330, Quantity: ADIABATIC SURFACE TEMPERATURE
    99 Coords:     48.100000     16.500000      3.700000, Make: null, ID: SZ2_SM_2/0_2_330, Quantity: ADIABATIC SURFACE TEMPERATURE
   100 Coords:     48.100000     16.500000      4.300000, Make: null, ID: SZ2_SM_2/0_2_390, Quantity: ADIABATIC SURFACE TEMPERATURE
   101 Coords:     50.700000     16.500000      1.500000, Make: null, ID: SZ2_SM_3/0_2_110, Quantity: ADIABATIC SURFACE TEMPERATURE
   102 Coords:     50.900000     16.700000      1.500000, Make: null, ID: SZ2_SM_3/0_3_110, Quantity: ADIABATIC SURFACE TEMPERATURE
   103 Coords:     50.500000     16.700000      1.500000, Make: null, ID: SZ2_SM_3/0_4_110, Quantity: ADIABATIC SURFACE TEMPERATURE
   104 Coords:     50.700000     16.500000      1.700000, Make: null, ID: SZ2_SM_3/0_2_130, Quantity: ADIABATIC SURFACE TEMPERATURE
   105 Coords:     50.900000     16.700000      1.700000, Make: null, ID: SZ2_SM_3/0_3_130, Quantity: ADIABATIC SURFACE TEMPERATURE
   106 Coords:     50.500000     16.700000      1.700000, Make: null, ID: SZ2_SM_3/0_4_130, Quantity: ADIABATIC SURFACE TEMPERATURE
   107 Coords:     50.700000     16.900000      1.900000, Make: null, ID: SZ2_SM_3/0_1_150, Quantity: ADIABATIC SURFACE TEMPERATURE
   108 Coords:     50.700000     16.500000      1.900000, Make: null, ID: SZ2_SM_3/0_2_150, Quantity: ADIABATIC SURFACE TEMPERATURE
   109 Coords:     50.900000     16.700000      1.900000, Make: null, ID: SZ2_SM_3/0_3_150, Quantity: ADIABATIC SURFACE TEMPERATURE
   110 Coords:     50.500000     16.700000      1.900000, Make: null, ID: SZ2_SM_3/0_4_150, Quantity: ADIABATIC SURFACE TEMPERATURE
   111 Coords:     50.700000     16.900000      2.700000, Make: null, ID: SZ2_SM_3/0_1_230, Quantity: ADIABATIC SURFACE TEMPERATURE
   112 Coords:     50.900000     16.700000      2.700000, Make: null, ID: SZ2_SM_3/0_3_230, Quantity: ADIABATIC SURFACE TEMPERATURE
   113 Coords:     50.500000     16.700000      2.700000, Make: null, ID: SZ2_SM_3/0_4_230, Quantity: ADIABATIC SURFACE TEMPERATURE
   114 Coords:     50.700000     16.900000      3.300000, Make: null, ID: SZ2_SM_3/0_1_290, Quantity: ADIABATIC SURFACE TEMPERATURE
   115 Coords:     50.700000     16.500000      3.300000, Make: null, ID: SZ2_SM_3/0_2_290, Quantity: ADIABATIC SURFACE TEMPERATURE
   116 Coords:     50.700000     16.900000      3.500000, Make: null, ID: SZ2_SM_3/0_1_310, Quantity: ADIABATIC SURFACE TEMPERATURE
   117 Coords:     50.700000     16.500000      3.500000, Make: null, ID: SZ2_SM_3/0_2_310, Quantity: ADIABATIC SURFACE TEMPERATURE
   118 Coords:     50.700000     16.900000      3.700000, Make: null, ID: SZ2_SM_3/0_1_330, Quantity: ADIABATIC SURFACE TEMPERATURE
   119 Coords:     50.700000     16.500000      3.700000, Make: null, ID: SZ2_SM_3/0_2_330, Quantity: ADIABATIC SURFACE TEMPERATURE
   120 Coords:     50.700000     16.500000      4.300000, Make: null, ID: SZ2_SM_3/0_2_390, Quantity: ADIABATIC SURFACE TEMPERATURE
   121 Coords:     38.100000     17.900000      3.900000, Make: null, ID: SZ2_DT_-3/1.20_01, Quantity: ADIABATIC SURFACE TEMPERATURE
   122 Coords:     38.100000     18.300000      3.900000, Make: null, ID: SZ2_DT_-3/1.60_01, Quantity: ADIABATIC SURFACE TEMPERATURE
   123 Coords:     38.100000     18.700000      3.900000, Make: null, ID: SZ2_DT_-3/2.00_01, Quantity: ADIABATIC SURFACE TEMPERATURE
   124 Coords:     38.100000     19.100000      3.900000, Make: null, ID: SZ2_DT_-3/2.40_01, Quantity: ADIABATIC SURFACE TEMPERATURE
   125 Coords:     38.100000     19.500000      3.900000, Make: null, ID: SZ2_DT_-3/2.80_01, Quantity: ADIABATIC SURFACE TEMPERATURE
   126 Coords:     38.100000     19.900000      3.900000, Make: null, ID: SZ2_DT_-3/3.20_01, Quantity: ADIABATIC SURFACE TEMPERATURE
   127 Coords:     38.100000     20.300000      3.900000, Make: null, ID: SZ2_DT_-3/3.60_01, Quantity: ADIABATIC SURFACE TEMPERATURE
   128 Coords:     38.100000     20.700000      3.900000, Make: null, ID: SZ2_DT_-3/4.00_01, Quantity: ADIABATIC SURFACE TEMPERATURE
   129 Coords:     38.100000     21.700000      3.900000, Make: null, ID: SZ2_DT_-3/5.00_01, Quantity: ADIABATIC SURFACE TEMPERATURE
   130 Coords:     38.100000     15.500000      2.500000, Make: null, ID: SZ2_DT_-3/-1.20_01, Quantity: ADIABATIC SURFACE TEMPERATURE
   131 Coords:     38.100000     15.100000      2.500000, Make: null, ID: SZ2_DT_-3/-1.60_01, Quantity: ADIABATIC SURFACE TEMPERATURE
   132 Coords:     38.100000     14.700000      2.500000, Make: null, ID: SZ2_DT_-3/-2.00_01, Quantity: ADIABATIC SURFACE TEMPERATURE
   133 Coords:     38.100000     14.300000      2.500000, Make: null, ID: SZ2_DT_-3/-2.40_01, Quantity: ADIABATIC SURFACE TEMPERATURE
   134 Coords:     38.100000     13.900000      2.500000, Make: null, ID: SZ2_DT_-3/-2.80_01, Quantity: ADIABATIC SURFACE TEMPERATURE
   135 Coords:     38.100000     13.500000      2.500000, Make: null, ID: SZ2_DT_-3/-3.20_01, Quantity: ADIABATIC SURFACE TEMPERATURE
   136 Coords:     38.100000     13.100000      2.500000, Make: null, ID: SZ2_DT_-3/-3.60_01, Quantity: ADIABATIC SURFACE TEMPERATURE
   137 Coords:     38.100000     12.700000      2.500000, Make: null, ID: SZ2_DT_-3/-4.00_01, Quantity: ADIABATIC SURFACE TEMPERATURE
   138 Coords:     38.100000     11.700000      2.500000, Make: null, ID: SZ2_DT_-3/-5.00_01, Quantity: ADIABATIC SURFACE TEMPERATURE
   139 Coords:     40.700000     17.900000      3.900000, Make: null, ID: SZ2_DT_-2/1.20_1, Quantity: ADIABATIC SURFACE TEMPERATURE
   140 Coords:     40.700000     18.300000      3.900000, Make: null, ID: SZ2_DT_-2/1.60_1, Quantity: ADIABATIC SURFACE TEMPERATURE
   141 Coords:     40.700000     18.700000      3.900000, Make: null, ID: SZ2_DT_-2/2.00_1, Quantity: ADIABATIC SURFACE TEMPERATURE
   142 Coords:     40.700000     19.100000      3.900000, Make: null, ID: SZ2_DT_-2/2.40_1, Quantity: ADIABATIC SURFACE TEMPERATURE
   143 Coords:     40.700000     19.500000      3.900000, Make: null, ID: SZ2_DT_-2/2.80_1, Quantity: ADIABATIC SURFACE TEMPERATURE
   144 Coords:     40.700000     19.900000      3.900000, Make: null, ID: SZ2_DT_-2/3.20_1, Quantity: ADIABATIC SURFACE TEMPERATURE
   145 Coords:     40.700000     20.300000      3.900000, Make: null, ID: SZ2_DT_-2/3.60_1, Quantity: ADIABATIC SURFACE TEMPERATURE
   146 Coords:     40.700000     20.700000      3.900000, Make: null, ID: SZ2_DT_-2/4.00_1, Quantity: ADIABATIC SURFACE TEMPERATURE
   147 Coords:     40.700000     21.700000      3.900000, Make: null, ID: SZ2_DT_-2/5.00_1, Quantity: ADIABATIC SURFACE TEMPERATURE
   148 Coords:     40.700000     15.500000      2.500000, Make: null, ID: SZ2_DT_-2/-1.20_1, Quantity: ADIABATIC SURFACE TEMPERATURE
   149 Coords:     40.700000     15.100000      2.500000, Make: null, ID: SZ2_DT_-2/-1.60_1, Quantity: ADIABATIC SURFACE TEMPERATURE
   150 Coords:     40.700000     14.700000      2.500000, Make: null, ID: SZ2_DT_-2/-2.00_1, Quantity: ADIABATIC SURFACE TEMPERATURE
   151 Coords:     40.700000     14.300000      2.500000, Make: null, ID: SZ2_DT_-2/-2.40_1, Quantity: ADIABATIC SURFACE TEMPERATURE
   152 Coords:     40.700000     13.900000      2.500000, Make: null, ID: SZ2_DT_-2/-2.80_1, Quantity: ADIABATIC SURFACE TEMPERATURE
   153 Coords:     40.700000     13.500000      2.500000, Make: null, ID: SZ2_DT_-2/-3.20_1, Quantity: ADIABATIC SURFACE TEMPERATURE
   154 Coords:     40.700000     13.100000      2.500000, Make: null, ID: SZ2_DT_-2/-3.60_1, Quantity: ADIABATIC SURFACE TEMPERATURE
   155 Coords:     40.700000     12.700000      2.500000, Make: null, ID: SZ2_DT_-2/-4.00_1, Quantity: ADIABATIC SURFACE TEMPERATURE
   156 Coords:     40.700000     11.700000      2.500000, Make: null, ID: SZ2_DT_-2/-5.00_1, Quantity: ADIABATIC SURFACE TEMPERATURE
   157 Coords:     43.100000     17.900000      3.900000, Make: null, ID: SZ2_DT_-1/1.20_1, Quantity: ADIABATIC SURFACE TEMPERATURE
   158 Coords:     43.100000     18.300000      3.900000, Make: null, ID: SZ2_DT_-1/1.60_1, Quantity: ADIABATIC SURFACE TEMPERATURE
   159 Coords:     43.100000     18.700000      3.900000, Make: null, ID: SZ2_DT_-1/2.00_1, Quantity: ADIABATIC SURFACE TEMPERATURE
   160 Coords:     43.100000     19.500000      3.900000, Make: null, ID: SZ2_DT_-1/2.80_1, Quantity: ADIABATIC SURFACE TEMPERATURE
   161 Coords:     43.100000     19.900000      3.900000, Make: null, ID: SZ2_DT_-1/3.20_1, Quantity: ADIABATIC SURFACE TEMPERATURE
   162 Coords:     43.100000     19.100000      3.900000, Make: null, ID: SZ2_DT_-1/2.40_1, Quantity: ADIABATIC SURFACE TEMPERATURE
   163 Coords:     43.100000     20.300000      3.900000, Make: null, ID: SZ2_DT_-1/3.60_1, Quantity: ADIABATIC SURFACE TEMPERATURE
   164 Coords:     43.100000     20.700000      3.900000, Make: null, ID: SZ2_DT_-1/4.00_1, Quantity: ADIABATIC SURFACE TEMPERATURE
   165 Coords:     43.100000     21.700000      3.900000, Make: null, ID: SZ2_DT_-1/5.00_1, Quantity: ADIABATIC SURFACE TEMPERATURE
   166 Coords:     43.100000     15.500000      2.500000, Make: null, ID: SZ2_DT_-1/-1.20_1, Quantity: ADIABATIC SURFACE TEMPERATURE
   167 Coords:     43.100000     15.100000      2.500000, Make: null, ID: SZ2_DT_-1/-1.60_1, Quantity: ADIABATIC SURFACE TEMPERATURE
   168 Coords:     43.100000     14.700000      2.500000, Make: null, ID: SZ2_DT_-1/-2.00_1, Quantity: ADIABATIC SURFACE TEMPERATURE
   169 Coords:     43.100000     14.300000      2.500000, Make: null, ID: SZ2_DT_-1/-2.40_1, Quantity: ADIABATIC SURFACE TEMPERATURE
   170 Coords:     43.100000     13.900000      2.500000, Make: null, ID: SZ2_DT_-1/-2.80_1, Quantity: ADIABATIC SURFACE TEMPERATURE
   171 Coords:     43.100000     13.500000      2.500000, Make: null, ID: SZ2_DT_-1/-3.20_1, Quantity: ADIABATIC SURFACE TEMPERATURE
   172 Coords:     43.100000     13.100000      2.500000, Make: null, ID: SZ2_DT_-1/-3.60_1, Quantity: ADIABATIC SURFACE TEMPERATURE
   173 Coords:     43.100000     12.700000      2.500000, Make: null, ID: SZ2_DT_-1/-4.00_1, Quantity: ADIABATIC SURFACE TEMPERATURE
   174 Coords:     43.100000     11.700000      2.500000, Make: null, ID: SZ2_DT_-1/-5.00_1, Quantity: ADIABATIC SURFACE TEMPERATURE
   175 Coords:     45.700000     17.900000      3.900000, Make: null, ID: SZ2_DT_1/1.20_1, Quantity: ADIABATIC SURFACE TEMPERATURE
   176 Coords:     45.700000     18.300000      3.900000, Make: null, ID: SZ2_DT_1/1.60_1, Quantity: ADIABATIC SURFACE TEMPERATURE
   177 Coords:     45.700000     18.700000      3.900000, Make: null, ID: SZ2_DT_1/2.00_1, Quantity: ADIABATIC SURFACE TEMPERATURE
   178 Coords:     45.700000     19.100000      3.900000, Make: null, ID: SZ2_DT_1/2.40_1, Quantity: ADIABATIC SURFACE TEMPERATURE
   179 Coords:     45.700000     19.500000      3.900000, Make: null, ID: SZ2_DT_1/2.80_1, Quantity: ADIABATIC SURFACE TEMPERATURE
   180 Coords:     45.700000     19.900000      3.900000, Make: null, ID: SZ2_DT_1/3.20_1, Quantity: ADIABATIC SURFACE TEMPERATURE
   181 Coords:     45.700000     20.300000      3.900000, Make: null, ID: SZ2_DT_1/3.60_1, Quantity: ADIABATIC SURFACE TEMPERATURE
   182 Coords:     45.700000     20.700000      3.900000, Make: null, ID: SZ2_DT_1/4.00_1, Quantity: ADIABATIC SURFACE TEMPERATURE
   183 Coords:     45.700000     21.700000      3.900000, Make: null, ID: SZ2_DT_1/5.00_1, Quantity: ADIABATIC SURFACE TEMPERATURE
   184 Coords:     45.700000     15.500000      2.500000, Make: null, ID: SZ2_DT_1/-1.20_1, Quantity: ADIABATIC SURFACE TEMPERATURE
   185 Coords:     45.700000     15.100000      2.500000, Make: null, ID: SZ2_DT_1/-1.60_1, Quantity: ADIABATIC SURFACE TEMPERATURE
   186 Coords:     45.700000     14.700000      2.500000, Make: null, ID: SZ2_DT_1/-2.00_1, Quantity: ADIABATIC SURFACE TEMPERATURE
   187 Coords:     45.700000     14.300000      2.500000, Make: null, ID: SZ2_DT_1/-2.40_1, Quantity: ADIABATIC SURFACE TEMPERATURE
   188 Coords:     45.700000     13.900000      2.500000, Make: null, ID: SZ2_DT_1/-2.80_1, Quantity: ADIABATIC SURFACE TEMPERATURE
   189 Coords:     45.700000     13.500000      2.500000, Make: null, ID: SZ2_DT_1/-3.20_1, Quantity: ADIABATIC SURFACE TEMPERATURE
   190 Coords:     45.700000     13.100000      2.500000, Make: null, ID: SZ2_DT_1/-3.60_1, Quantity: ADIABATIC SURFACE TEMPERATURE
   191 Coords:     45.700000     12.700000      2.500000, Make: null, ID: SZ2_DT_1/-4.00_2, Quantity: ADIABATIC SURFACE TEMPERATURE
   192 Coords:     45.700000     11.700000      2.500000, Make: null, ID: SZ2_DT_1/-5.00_1, Quantity: ADIABATIC SURFACE TEMPERATURE
   193 Coords:     48.100000     17.900000      3.900000, Make: null, ID: SZ2_DT_2/1.20_1, Quantity: ADIABATIC SURFACE TEMPERATURE
   194 Coords:     48.100000     18.300000      3.900000, Make: null, ID: SZ2_DT_2/1.60_1, Quantity: ADIABATIC SURFACE TEMPERATURE
   195 Coords:     48.100000     18.700000      3.900000, Make: null, ID: SZ2_DT_2/2.00_1, Quantity: ADIABATIC SURFACE TEMPERATURE
   196 Coords:     48.100000     19.100000      3.900000, Make: null, ID: SZ2_DT_2/2.40_1, Quantity: ADIABATIC SURFACE TEMPERATURE
   197 Coords:     48.100000     19.500000      3.900000, Make: null, ID: SZ2_DT_2/2.80_1, Quantity: ADIABATIC SURFACE TEMPERATURE
   198 Coords:     48.100000     19.900000      3.900000, Make: null, ID: SZ2_DT_2/3.20_1, Quantity: ADIABATIC SURFACE TEMPERATURE
   199 Coords:     48.100000     20.300000      3.900000, Make: null, ID: SZ2_DT_2/3.60_1, Quantity: ADIABATIC SURFACE TEMPERATURE
   200 Coords:     48.100000     20.700000      3.900000, Make: null, ID: SZ2_DT_2/4.00_1, Quantity: ADIABATIC SURFACE TEMPERATURE
   201 Coords:     48.100000     21.700000      3.900000, Make: null, ID: SZ2_DT_2/5.00_1, Quantity: ADIABATIC SURFACE TEMPERATURE
   202 Coords:     48.100000     15.500000      2.500000, Make: null, ID: SZ2_DT_2/-1.20_1, Quantity: ADIABATIC SURFACE TEMPERATURE
   203 Coords:     48.100000     15.100000      2.500000, Make: null, ID: SZ2_DT_2/-1.60_1, Quantity: ADIABATIC SURFACE TEMPERATURE
   204 Coords:     48.100000     14.700000      2.500000, Make: null, ID: SZ2_DT_2/-2.00_1, Quantity: ADIABATIC SURFACE TEMPERATURE
   205 Coords:     48.100000     14.300000      2.500000, Make: null, ID: SZ2_DT_2/-2.40_1, Quantity: ADIABATIC SURFACE TEMPERATURE
   206 Coords:     48.100000     13.900000      2.500000, Make: null, ID: SZ2_DT_2/-2.80_1, Quantity: ADIABATIC SURFACE TEMPERATURE
   207 Coords:     48.100000     13.500000      2.500000, Make: null, ID: SZ2_DT_2/-3.20_1, Quantity: ADIABATIC SURFACE TEMPERATURE
   208 Coords:     48.100000     13.100000      2.500000, Make: null, ID: SZ2_DT_2/-3.60_1, Quantity: ADIABATIC SURFACE TEMPERATURE
   209 Coords:     48.100000     12.700000      2.500000, Make: null, ID: SZ2_DT_2/-4.00_2, Quantity: ADIABATIC SURFACE TEMPERATURE
   210 Coords:     48.100000     11.700000      2.500000, Make: null, ID: SZ2_DT_2/-5.00_1, Quantity: ADIABATIC SURFACE TEMPERATURE
   211 Coords:     50.700000     17.900000      3.900000, Make: null, ID: SZ2_DT_3/1.20_1, Quantity: ADIABATIC SURFACE TEMPERATURE
   212 Coords:     50.700000     18.300000      3.900000, Make: null, ID: SZ2_DT_3/1.60_1, Quantity: ADIABATIC SURFACE TEMPERATURE
   213 Coords:     50.700000     18.700000      3.900000, Make: null, ID: SZ2_DT_3/2.00_1, Quantity: ADIABATIC SURFACE TEMPERATURE
   214 Coords:     50.700000     19.100000      3.900000, Make: null, ID: SZ2_DT_3/2.40_1, Quantity: ADIABATIC SURFACE TEMPERATURE
   215 Coords:     50.700000     19.500000      3.900000, Make: null, ID: SZ2_DT_3/2.80_1, Quantity: ADIABATIC SURFACE TEMPERATURE
   216 Coords:     50.700000     19.900000      3.900000, Make: null, ID: SZ2_DT_3/3.20_1, Quantity: ADIABATIC SURFACE TEMPERATURE
   217 Coords:     50.700000     20.300000      3.900000, Make: null, ID: SZ2_DT_3/3.60_1, Quantity: ADIABATIC SURFACE TEMPERATURE
   218 Coords:     50.700000     20.700000      3.900000, Make: null, ID: SZ2_DT_3/4.00_1, Quantity: ADIABATIC SURFACE TEMPERATURE
   219 Coords:     50.700000     21.700000      3.900000, Make: null, ID: SZ2_DT_3/5.00_1, Quantity: ADIABATIC SURFACE TEMPERATURE
   220 Coords:     50.700000     15.500000      2.500000, Make: null, ID: SZ2_DT_3/-1.20_1, Quantity: ADIABATIC SURFACE TEMPERATURE
   221 Coords:     50.700000     15.100000      2.500000, Make: null, ID: SZ2_DT_3/-1.60_1, Quantity: ADIABATIC SURFACE TEMPERATURE
   222 Coords:     50.700000     14.700000      2.500000, Make: null, ID: SZ2_DT_3/-2.00_1, Quantity: ADIABATIC SURFACE TEMPERATURE
   223 Coords:     50.700000     14.300000      2.500000, Make: null, ID: SZ2_DT_3/-2.40_1, Quantity: ADIABATIC SURFACE TEMPERATURE
   224 Coords:     50.700000     13.900000      2.500000, Make: null, ID: SZ2_DT_3/-2.80_1, Quantity: ADIABATIC SURFACE TEMPERATURE
   225 Coords:     50.700000     13.500000      2.500000, Make: null, ID: SZ2_DT_3/-3.20_1, Quantity: ADIABATIC SURFACE TEMPERATURE
   226 Coords:     50.700000     11.700000      2.500000, Make: null, ID: SZ2_DT_3/-5.00_1, Quantity: ADIABATIC SURFACE TEMPERATURE
   227 Coords:     50.700000     13.100000      2.500000, Make: null, ID: SZ2_DT_3/-3.60_1, Quantity: ADIABATIC SURFACE TEMPERATURE
   228 Coords:     50.700000     12.700000      2.500000, Make: null, ID: SZ2_DT_3/-4.00_1, Quantity: ADIABATIC SURFACE TEMPERATURE
   229 Coords:     41.900000     13.700000      1.700000, Make: null, ID: VAN_130, Quantity: TEMPERATURE
   230 Coords:     41.900000     13.700000      2.100000, Make: null, ID: VAN_170, Quantity: TEMPERATURE
   231 Coords:     41.900000     13.700000      2.500000, Make: null, ID: VAN_210, Quantity: TEMPERATURE
   232 Coords:     44.500000     13.700000      1.700000, Make: null, ID: PKW1_130, Quantity: TEMPERATURE
   233 Coords:     44.500000     13.700000      1.900000, Make: null, ID: PKW1_150, Quantity: TEMPERATURE
   234 Coords:     44.500000     13.700000      2.500000, Make: null, ID: PKW1_210, Quantity: TEMPERATURE
   235 Coords:     41.900000     19.700000      3.100000, Make: null, ID: PKW3_130, Quantity: TEMPERATURE
   236 Coords:     41.900000     19.700000      3.300000, Make: null, ID: PKW3_150, Quantity: TEMPERATURE
   237 Coords:     41.900000     19.700000      3.900000, Make: null, ID: PKW3_210, Quantity: TEMPERATURE
   238 Coords:     44.500000     19.700000      3.100000, Make: null, ID: PKW2_130, Quantity: TEMPERATURE
   239 Coords:     44.500000     19.700000      3.300000, Make: null, ID: PKW2_150, Quantity: TEMPERATURE
   240 Coords:     44.500000     19.700000      3.900000, Make: null, ID: PKW2_210, Quantity: TEMPERATURE


 PLOT3D Information

   Sampling Interval (s)              30.0

   1 Quantity: TEMPERATURE
   2 Quantity: U-VELOCITY
   3 Quantity: V-VELOCITY
   4 Quantity: W-VELOCITY
   5 Quantity: VISIBILITY, Species: SOOT


 Slice File Information, Mesh     1

   Sampling Interval (s)             1.000

   1 Nodes:   0  78  44  44   0  40, Quantity: TEMPERATURE
   2 Nodes:  53  53   0  60   0  40, Quantity: TEMPERATURE
   3 Nodes:  65  65   0  60   0  40, Quantity: TEMPERATURE
   4 Nodes:   0  78   0  60  12  12, Quantity: TEMPERATURE
   5 Nodes:   0  78   0  60  20  20, Quantity: TEMPERATURE
   6 Nodes:   0  78  18  18   0  40, Quantity: TEMPERATURE


 Radiation Model Information

   Number of control angles  104
   Time step increment         3
   Angle increment             5
   Theta band N_phi   Solid angle
     1:        4     0.120
     2:       12     0.114
     3:       16     0.127
     4:       20     0.120
     5:       20     0.120
     6:       16     0.127
     7:       12     0.114
     8:        4     0.120
   Using gray gas absorption.
   Mean beam length  0.100 m
 
 

 Run Time Diagnostics

       Time Step       1   October 13, 2020  17:37:45
       Step Size:    0.112E+00 s, Total Time:       0.11 s
       Pressure Iterations:      1
       Maximum Velocity Error:  0.51E-02 on Mesh   1 at (  79  31  15)
       Maximum Pressure Error:  0.16E-05 on Mesh   1 at (  73  38  40)
       ---------------------------------------------------------------
       Mesh    1
       Max CFL number:  0.11E-01 at (  58,   6,  32)
       Max divergence:  0.23E-02 at (  10,  32,  20)
       Min divergence: -0.15E-02 at (  71,  31,  24)
       Max VN number:   0.85E-02 at (  54,  22,  20)
       Radiation Loss to Boundaries:        21.801 kW
       Mesh    2
       Max CFL number:  0.11E-01 at (  45,   5,   5)
       Max divergence:  0.27E-02 at (  82,  11,  27)
       Min divergence: -0.16E-02 at (   5,  31,  24)
       Max VN number:   0.86E-02 at (  18,  25,  37)
       Radiation Loss to Boundaries:        15.627 kW
 
       Time Step       2   October 13, 2020  17:37:47
       Step Size:    0.112E+00 s, Total Time:       0.22 s
       Pressure Iterations:      1
       Maximum Velocity Error:  0.24E-02 on Mesh   1 at (  79  30  15)
       Maximum Pressure Error:  0.14E-03 on Mesh   2 at (  56  32  38)
       ---------------------------------------------------------------
       Mesh    1
       Max CFL number:  0.11E-01 at (  58,   6,  31)
       Max divergence:  0.55E-02 at (  10,  32,  21)
       Min divergence: -0.10E-02 at (  71,  31,  24)
       Max VN number:   0.85E-02 at (  54,  22,  20)
       Radiation Loss to Boundaries:        21.796 kW
       Mesh    2
       Max CFL number:  0.11E-01 at (  45,   5,   5)
       Max divergence:  0.58E-02 at (  20,  32,  21)
       Min divergence: -0.11E-02 at (  18,  31,  24)
       Max VN number:   0.86E-02 at (  18,  25,  37)
       Radiation Loss to Boundaries:        15.623 kW
 
       Time Step       3   October 13, 2020  17:37:48
       Step Size:    0.112E+00 s, Total Time:       0.34 s
       Pressure Iterations:      1
       Maximum Velocity Error:  0.29E-02 on Mesh   1 at (  79  21  31)
       Maximum Pressure Error:  0.20E-03 on Mesh   2 at (   7  32  22)
       ---------------------------------------------------------------
       Mesh    1
       Max CFL number:  0.11E-01 at (  58,   6,  31)
       Max divergence:  0.53E-02 at (  10,  32,  21)
       Min divergence: -0.10E-02 at (  71,  31,  24)
       Max VN number:   0.85E-02 at (  54,  22,  20)
       Radiation Loss to Boundaries:        20.969 kW
       Mesh    2
       Max CFL number:  0.11E-01 at (  45,   5,   5)
       Max divergence:  0.56E-02 at (  20,  32,  21)
       Min divergence: -0.11E-02 at (  18,  31,  24)
       Max VN number:   0.86E-02 at (  18,  25,  37)
       Radiation Loss to Boundaries:        16.155 kW
 
       Time Step       4   October 13, 2020  17:37:49
       Step Size:    0.112E+00 s, Total Time:       0.45 s
       Pressure Iterations:      1
       Maximum Velocity Error:  0.17E-02 on Mesh   1 at (  79  21  31)
       Maximum Pressure Error:  0.24E-03 on Mesh   2 at (  20  32  22)
       ---------------------------------------------------------------
       Mesh    1
       Max CFL number:  0.11E-01 at (  58,   6,  31)
       Max divergence:  0.16E-01 at (  70,  10,   8)
       Min divergence: -0.11E-02 at (  71,  31,  24)
       Max VN number:   0.85E-02 at (  54,  22,  20)
       Total Heat Release Rate:              1.053 kW
       Radiation Loss to Boundaries:        20.963 kW
       Mesh    2
       Max CFL number:  0.11E-01 at (  45,   5,   5)
       Max divergence:  0.43E-02 at (  20,  32,  20)
       Min divergence: -0.11E-02 at (  18,  31,  24)
       Max VN number:   0.86E-02 at (  18,  25,  37)
       Radiation Loss to Boundaries:        16.151 kW
 
       Time Step       5   October 13, 2020  17:37:50
       Step Size:    0.112E+00 s, Total Time:       0.56 s
       Pressure Iterations:      1
       Maximum Velocity Error:  0.12E-02 on Mesh   1 at (  79  45  36)
       Maximum Pressure Error:  0.98E-03 on Mesh   1 at (  70  10   8)
       ---------------------------------------------------------------
       Mesh    1
       Max CFL number:  0.11E-01 at (  58,   6,  31)
       Max divergence:  0.19E-01 at (  70,  10,   8)
       Min divergence: -0.11E-02 at (  71,  31,  24)
       Max VN number:   0.85E-02 at (  54,  22,  20)
       Total Heat Release Rate:              1.778 kW
       Radiation Loss to Boundaries:        20.958 kW
       Mesh    2
       Max CFL number:  0.11E-01 at (  45,   5,   5)
       Max divergence:  0.43E-02 at (  20,  32,  20)
       Min divergence: -0.11E-02 at (  18,  31,  24)
       Max VN number:   0.85E-02 at (  18,  25,  37)
       Radiation Loss to Boundaries:        16.147 kW
 
       Time Step       6   October 13, 2020  17:37:51
       Step Size:    0.112E+00 s, Total Time:       0.67 s
       Pressure Iterations:      1
       Maximum Velocity Error:  0.10E-02 on Mesh   1 at (  79  57  36)
       Maximum Pressure Error:  0.19E-02 on Mesh   1 at (  70  10   8)
       ---------------------------------------------------------------
       Mesh    1
       Max CFL number:  0.11E-01 at (  58,   6,  31)
       Max divergence:  0.14E-01 at (  70,  10,   8)
       Min divergence: -0.11E-02 at (  71,  31,  24)
       Max VN number:   0.85E-02 at (  54,  22,  20)
       Total Heat Release Rate:              2.608 kW
       Radiation Loss to Boundaries:        19.683 kW
       Mesh    2
       Max CFL number:  0.11E-01 at (  45,   5,   5)
       Max divergence:  0.42E-02 at (  20,  32,  20)
       Min divergence: -0.11E-02 at (  18,  31,  24)
       Max VN number:   0.85E-02 at (  18,  25,  37)
       Radiation Loss to Boundaries:        16.771 kW
 
       Time Step       7   October 13, 2020  17:37:52
       Step Size:    0.112E+00 s, Total Time:       0.78 s
       Pressure Iterations:      1
       Maximum Velocity Error:  0.12E-02 on Mesh   1 at (  79  32  22)
       Maximum Pressure Error:  0.28E-02 on Mesh   1 at (  70  10   8)
       ---------------------------------------------------------------
       Mesh    1
       Max CFL number:  0.11E-01 at (  58,   6,  31)
       Max divergence:  0.15E-01 at (  70,  10,   8)
       Min divergence: -0.12E-02 at (  71,  31,  24)
       Max VN number:   0.84E-02 at (  54,  22,  20)
       Total Heat Release Rate:              3.359 kW
       Radiation Loss to Boundaries:        19.678 kW
       Mesh    2
       Max CFL number:  0.11E-01 at (  45,   4,   5)
       Max divergence:  0.39E-02 at (  20,  32,  20)
       Min divergence: -0.12E-02 at (  31,  32,  21)
       Max VN number:   0.85E-02 at (  18,  25,  37)
       Radiation Loss to Boundaries:        16.766 kW
 
       Time Step       8   October 13, 2020  17:37:53
       Step Size:    0.112E+00 s, Total Time:       0.89 s
       Pressure Iterations:      1
       Maximum Velocity Error:  0.13E-02 on Mesh   1 at (  79  32  22)
       Maximum Pressure Error:  0.37E-02 on Mesh   1 at (  70  10   8)
       ---------------------------------------------------------------
       Mesh    1
       Max CFL number:  0.11E-01 at (  58,   6,  31)
       Max divergence:  0.17E-01 at (  67,  21,   8)
       Min divergence: -0.12E-02 at (  71,  31,  24)
       Max VN number:   0.84E-02 at (  54,  22,  20)
       Total Heat Release Rate:              4.242 kW
       Radiation Loss to Boundaries:        19.672 kW
       Mesh    2
       Max CFL number:  0.11E-01 at (  45,   4,   5)
       Max divergence:  0.39E-02 at (  20,  32,  20)
       Min divergence: -0.12E-02 at (  31,  32,  21)
       Max VN number:   0.85E-02 at (  18,  25,  37)
       Radiation Loss to Boundaries:        16.762 kW
 
       Time Step       9   October 13, 2020  17:37:54
       Step Size:    0.112E+00 s, Total Time:       1.01 s
       Pressure Iterations:      1
       Maximum Velocity Error:  0.11E-02 on Mesh   1 at (  79  32  22)
       Maximum Pressure Error:  0.42E-02 on Mesh   1 at (  70  10   8)
       ---------------------------------------------------------------
       Mesh    1
       Max CFL number:  0.12E-01 at (  65,  21,   9)
       Max divergence:  0.18E-01 at (  67,  21,   8)
       Min divergence: -0.12E-02 at (  20,  32,  21)
       Max VN number:   0.84E-02 at (  54,  22,  20)
       Total Heat Release Rate:              4.913 kW
       Radiation Loss to Boundaries:        18.889 kW
       Mesh    2
       Max CFL number:  0.11E-01 at (  45,   4,   5)
       Max divergence:  0.39E-02 at (  20,  32,  20)
       Min divergence: -0.12E-02 at (  31,  32,  21)
       Max VN number:   0.85E-02 at (  18,  25,  37)
       Radiation Loss to Boundaries:        17.045 kW
 
       Time Step      10   October 13, 2020  17:37:55
       Step Size:    0.112E+00 s, Total Time:       1.12 s
       Pressure Iterations:      1
       Maximum Velocity Error:  0.98E-03 on Mesh   1 at (  79  19  31)
       Maximum Pressure Error:  0.49E-02 on Mesh   1 at (  70  10   8)
       ---------------------------------------------------------------
       Mesh    1
       Max CFL number:  0.12E-01 at (  65,  21,   9)
       Max divergence:  0.21E-01 at (  67,  20,   8)
       Min divergence: -0.13E-02 at (  33,  32,  22)
       Max VN number:   0.84E-02 at (  54,  22,  20)
       Total Heat Release Rate:              5.740 kW
       Radiation Loss to Boundaries:        18.883 kW
       Mesh    2
       Max CFL number:  0.11E-01 at (  45,   4,   5)
       Max divergence:  0.40E-02 at (  82,  12,  27)
       Min divergence: -0.13E-02 at (  18,  32,  22)
       Max VN number:   0.84E-02 at (  18,  25,  37)
       Radiation Loss to Boundaries:        17.041 kW
 
       Time Step      20   October 13, 2020  17:38:06
       Step Size:    0.112E+00 s, Total Time:       2.24 s
       Pressure Iterations:      1
       Maximum Velocity Error:  0.32E-01 on Mesh   1 at (  65  15   7)
       Maximum Pressure Error:  0.13E+01 on Mesh   1 at (  65  16   8)
       ---------------------------------------------------------------
       Mesh    1
       Max CFL number:  0.32E-01 at (  65,  21,   9)
       Max divergence:  0.48E+00 at (  65,  15,   8)
       Min divergence: -0.14E-02 at (  71,  32,  22)
       Max VN number:   0.12E-01 at (  64,   9,   9)
       Total Heat Release Rate:             76.661 kW
       Radiation Loss to Boundaries:         8.963 kW
       Mesh    2
       Max CFL number:  0.31E-01 at (  20,  32,  20)
       Max divergence:  0.47E-02 at (  82,  12,  27)
       Min divergence: -0.13E-02 at (  20,  32,  22)
       Max VN number:   0.92E-02 at (  21,  33,  21)
       Radiation Loss to Boundaries:        15.574 kW
 
       Time Step      30   October 13, 2020  17:38:16
       Step Size:    0.112E+00 s, Total Time:       3.35 s
       Pressure Iterations:      1
       Maximum Velocity Error:  0.14E-01 on Mesh   1 at (  65  15  11)
       Maximum Pressure Error:  0.70E+00 on Mesh   1 at (  66  16   8)
       ---------------------------------------------------------------
       Mesh    1
       Max CFL number:  0.29E+00 at (  65,  15,   9)
       Max divergence:  0.19E+00 at (  67,  14,   8)
       Min divergence: -0.15E+00 at (  65,  15,   9)
       Max VN number:   0.12E+00 at (  65,  15,   9)
       Total Heat Release Rate:             28.897 kW
       Radiation Loss to Boundaries:         8.659 kW
       Mesh    2
       Max CFL number:  0.60E-01 at (  20,  32,  20)
       Max divergence:  0.50E-02 at (  82,  12,  27)
       Min divergence: -0.15E-02 at (   5,  32,  22)
       Max VN number:   0.13E-01 at (  20,  33,  19)
       Radiation Loss to Boundaries:        12.601 kW
 
       Time Step      40   October 13, 2020  17:38:26
       Step Size:    0.112E+00 s, Total Time:       4.47 s
       Pressure Iterations:      1
       Maximum Velocity Error:  0.19E-01 on Mesh   1 at (  64  16  11)
       Maximum Pressure Error:  0.89E+00 on Mesh   1 at (  64  16  10)
       ---------------------------------------------------------------
       Mesh    1
       Max CFL number:  0.59E+00 at (  65,  16,  10)
       Max divergence:  0.14E+00 at (  64,  17,   8)
       Min divergence: -0.93E-01 at (  68,  13,   9)
       Max VN number:   0.34E+00 at (  65,  15,  10)
       Total Heat Release Rate:             24.726 kW
       Radiation Loss to Boundaries:        14.828 kW
       Mesh    2
       Max CFL number:  0.98E-01 at (  20,  32,  20)
       Max divergence:  0.50E-02 at (  82,  12,  27)
       Min divergence: -0.13E-02 at (  18,  32,  21)
       Max VN number:   0.25E-01 at (  20,  32,  22)
       Radiation Loss to Boundaries:        15.522 kW
 
       Time Step      50   October 13, 2020  17:38:36
       Step Size:    0.112E+00 s, Total Time:       5.59 s
       Pressure Iterations:      1
       Maximum Velocity Error:  0.13E-01 on Mesh   1 at (  66  18   7)
       Maximum Pressure Error:  0.61E+00 on Mesh   1 at (  66  18   8)
       ---------------------------------------------------------------
       Mesh    1
       Max CFL number:  0.65E+00 at (  60,  15,  10)
       Max divergence:  0.17E+00 at (  66,  19,   8)
       Min divergence: -0.78E-01 at (  60,  15,  10)
       Max VN number:   0.30E+00 at (  61,  15,  10)
       Total Heat Release Rate:             32.636 kW
       Radiation Loss to Boundaries:        11.310 kW
       Mesh    2
       Max CFL number:  0.13E+00 at (  20,  32,  20)
       Max divergence:  0.52E-02 at (  82,   7,  13)
       Min divergence: -0.21E-02 at (  31,  32,  21)
       Max VN number:   0.65E-01 at (  20,  32,  22)
       Radiation Loss to Boundaries:        16.269 kW
 
       Time Step      60   October 13, 2020  17:38:46
       Step Size:    0.112E+00 s, Total Time:       6.71 s
       Pressure Iterations:      1
       Maximum Velocity Error:  0.80E-02 on Mesh   1 at (  70  13  11)
       Maximum Pressure Error:  0.30E+00 on Mesh   1 at (  68  15   8)
       ---------------------------------------------------------------
       Mesh    1
       Max CFL number:  0.69E+00 at (  73,  15,  10)
       Max divergence:  0.16E+00 at (  66,  13,   8)
       Min divergence: -0.50E-01 at (  73,  15,  10)
       Max VN number:   0.27E+00 at (  72,  15,  10)
       Total Heat Release Rate:             38.157 kW
       Radiation Loss to Boundaries:         7.426 kW
       Mesh    2
       Max CFL number:  0.15E+00 at (  68,  12,  25)
       Max divergence:  0.56E-02 at (  82,   7,  13)
       Min divergence: -0.25E-02 at (  31,  32,  21)
       Max VN number:   0.97E-01 at (  20,  32,  22)
       Radiation Loss to Boundaries:        14.042 kW
 
       Time Step      70   October 13, 2020  17:38:56
       Step Size:    0.112E+00 s, Total Time:       7.83 s
       Pressure Iterations:      1
       Maximum Velocity Error:  0.12E-01 on Mesh   1 at (  58  15  16)
       Maximum Pressure Error:  0.27E+00 on Mesh   1 at (  74  15  13)
       ---------------------------------------------------------------
       Mesh    1
       Max CFL number:  0.56E+00 at (  70,  16,  10)
       Max divergence:  0.14E+00 at (  67,  12,   8)
       Min divergence: -0.55E-01 at (  70,  16,  10)
       Max VN number:   0.31E+00 at (  71,  16,  10)
       Total Heat Release Rate:             44.583 kW
       Radiation Loss to Boundaries:         1.976 kW
       Mesh    2
       Max CFL number:  0.20E+00 at (  68,  12,  26)
       Max divergence:  0.59E-02 at (  68,  49,  34)
       Min divergence: -0.21E-02 at (  31,  32,  21)
       Max VN number:   0.11E+00 at (   5,  32,  22)
       Radiation Loss to Boundaries:        11.711 kW
 
       Time Step      80   October 13, 2020  17:39:06
       Step Size:    0.112E+00 s, Total Time:       8.94 s
       Pressure Iterations:      1
       Maximum Velocity Error:  0.49E-01 on Mesh   1 at (  79  15  15)
       Maximum Pressure Error:  0.39E+00 on Mesh   1 at (  77  15  15)
       ---------------------------------------------------------------
       Mesh    1
       Max CFL number:  0.55E+00 at (  66,  27,  14)
       Max divergence:  0.19E+00 at (  69,  17,   8)
       Min divergence: -0.50E-01 at (  71,  20,  10)
       Max VN number:   0.41E+00 at (  66,  26,  15)
       Total Heat Release Rate:             53.681 kW
       Radiation Loss to Boundaries:         0.586 kW
       Mesh    2
       Max CFL number:  0.22E+00 at (  68,  12,  27)
       Max divergence:  0.62E-02 at (  68,  49,  34)
       Min divergence: -0.21E-02 at (  31,  32,  21)
       Max VN number:   0.12E+00 at (  68,  12,  27)
       Radiation Loss to Boundaries:        13.232 kW
 
       Time Step      90   October 13, 2020  17:39:16
       Step Size:    0.112E+00 s, Total Time:      10.06 s
       Pressure Iterations:      1
       Maximum Velocity Error:  0.55E-01 on Mesh   1 at (  79  14  14)
       Maximum Pressure Error:  0.41E+00 on Mesh   1 at (  68  18   8)
       ---------------------------------------------------------------
       Mesh    1
       Max CFL number:  0.61E+00 at (  66,  22,  10)
       Max divergence:  0.18E+00 at (  68,  12,   8)
       Min divergence: -0.75E-01 at (  65,  13,   9)
       Max VN number:   0.37E+00 at (  66,  28,  15)
       Total Heat Release Rate:             58.214 kW
       Radiation Loss to Boundaries:         0.752 kW
       Mesh    2
       Max CFL number:  0.48E+00 at (   2,  14,  15)
       Max divergence:  0.73E-02 at (   2,  11,  15)
       Min divergence: -0.13E-01 at (   1,  18,  15)
       Max VN number:   0.24E+00 at (   1,  15,  15)
       Radiation Loss to Boundaries:        14.461 kW
 
       Time Step     100   October 13, 2020  17:39:26
       Step Size:    0.112E+00 s, Total Time:      11.18 s
       Pressure Iterations:      1
       Maximum Velocity Error:  0.47E-01 on Mesh   1 at (  79  21  15)
       Maximum Pressure Error:  0.38E+00 on Mesh   1 at (  70  14   8)
       ---------------------------------------------------------------
       Mesh    1
       Max CFL number:  0.55E+00 at (  70,  16,  10)
       Max divergence:  0.20E+00 at (  63,  19,   8)
       Min divergence: -0.78E-01 at (  71,  20,  10)
       Max VN number:   0.37E+00 at (  75,  20,  15)
       Total Heat Release Rate:             64.240 kW
       Radiation Loss to Boundaries:        -2.300 kW
       Mesh    2
       Max CFL number:  0.47E+00 at (   3,  19,  15)
       Max divergence:  0.66E-02 at (  68,  49,  34)
       Min divergence: -0.10E-01 at (   3,  20,  15)
       Max VN number:   0.19E+00 at (   4,  18,  15)
       Radiation Loss to Boundaries:        14.724 kW
 
       Time Step     200   October 13, 2020  17:41:07
       Step Size:    0.112E+00 s, Total Time:      22.36 s
       Pressure Iterations:      1
       Maximum Velocity Error:  0.18E-01 on Mesh   1 at (  64  26  16)
       Maximum Pressure Error:  0.83E+00 on Mesh   1 at (  65  14  10)
       ---------------------------------------------------------------
       Mesh    1
       Max CFL number:  0.82E+00 at (  61,  17,  10)
       Max divergence:  0.41E+00 at (  69,  12,   8)
       Min divergence: -0.16E+00 at (  62,  15,  10)
       Max VN number:   0.58E+00 at (  72,  17,  13)
       Total Heat Release Rate:            130.274 kW
       Radiation Loss to Boundaries:       -25.363 kW
       Mesh    2
       Max CFL number:  0.48E+00 at (   1,  11,  15)
       Max divergence:  0.80E-02 at (  82,   7,  13)
       Min divergence: -0.72E-02 at (   3,  14,  15)
       Max VN number:   0.25E+00 at (   5,  12,  15)
       Radiation Loss to Boundaries:        10.494 kW
 
       Time Step     300   October 13, 2020  17:42:49
       Step Size:    0.102E+00 s, Total Time:      33.03 s
       Pressure Iterations:      1
       Maximum Velocity Error:  0.71E-01 on Mesh   1 at (  66  12   7)
       Maximum Pressure Error:  0.51E+01 on Mesh   1 at (  66  12   8)
       ---------------------------------------------------------------
       Mesh    1
       Max CFL number:  0.89E+00 at (  65,  32,  15)
       Max divergence:  0.69E+00 at (  63,  13,   8)
       Min divergence: -0.41E+00 at (  68,  16,   9)
       Max VN number:   0.59E+00 at (  72,  18,  13)
       Total Heat Release Rate:            186.842 kW
       Radiation Loss to Boundaries:       -36.176 kW
       Mesh    2
       Max CFL number:  0.59E+00 at (   1,  19,  15)
       Max divergence:  0.13E-01 at (   6,  34,  14)
       Min divergence: -0.17E-01 at (   5,  32,  15)
       Max VN number:   0.27E+00 at (   5,  20,  15)
       Radiation Loss to Boundaries:        10.788 kW
 
       Time Step     400   October 13, 2020  17:44:30
       Step Size:    0.876E-01 s, Total Time:      42.26 s
       Pressure Iterations:      1
       Maximum Velocity Error:  0.47E-01 on Mesh   1 at (  66  12   7)
       Maximum Pressure Error:  0.69E+01 on Mesh   1 at (  65  10   8)
       ---------------------------------------------------------------
       Mesh    1
       Max CFL number:  0.87E+00 at (  61,  11,  10)
       Max divergence:  0.79E+00 at (  68,  12,   8)
       Min divergence: -0.53E+00 at (  65,   9,   8)
       Max VN number:   0.68E+00 at (  72,  18,  13)
       Total Heat Release Rate:            248.113 kW
       Radiation Loss to Boundaries:       -60.409 kW
       Mesh    2
       Max CFL number:  0.55E+00 at (   5,   1,  15)
       Max divergence:  0.20E-01 at (   4,  23,  13)
       Min divergence: -0.28E-01 at (   5,  34,  15)
       Max VN number:   0.28E+00 at (   5,  17,  15)
       Radiation Loss to Boundaries:        12.073 kW
 
       Time Step     500   October 13, 2020  17:46:12
       Step Size:    0.844E-01 s, Total Time:      50.69 s
       Pressure Iterations:      2
       Maximum Velocity Error:  0.20E-01 on Mesh   1 at (  64  12   7)
       Maximum Pressure Error:  0.15E+02 on Mesh   1 at (  66  11   8)
       ---------------------------------------------------------------
       Mesh    1
       Max CFL number:  0.95E+00 at (  60,  33,  15)
       Max divergence:  0.30E+01 at (  67,  13,   8)
       Min divergence: -0.71E+00 at (  71,  16,  10)
       Max VN number:   0.62E+00 at (  72,  17,  13)
       Total Heat Release Rate:            305.345 kW
       Radiation Loss to Boundaries:       -72.982 kW
       Mesh    2
       Max CFL number:  0.57E+00 at (   5,  35,  15)
       Max divergence:  0.22E-01 at (   6,  14,  12)
       Min divergence: -0.37E-01 at (   5,  35,  15)
       Max VN number:   0.24E+00 at (   1,  32,  16)
       Radiation Loss to Boundaries:        10.421 kW
 
       Time Step     600   October 13, 2020  17:47:55
       Step Size:    0.731E-01 s, Total Time:      58.41 s
       Pressure Iterations:      1
       Maximum Velocity Error:  0.33E-01 on Mesh   1 at (  69  14   7)
       Maximum Pressure Error:  0.89E+01 on Mesh   1 at (  72  16  13)
       ---------------------------------------------------------------
       Mesh    1
       Max CFL number:  0.85E+00 at (  71,  16,  10)
       Max divergence:  0.13E+01 at (  71,  15,   9)
       Min divergence: -0.11E+01 at (  71,  16,  13)
       Max VN number:   0.74E+00 at (  72,  16,  13)
       Total Heat Release Rate:            348.059 kW
       Radiation Loss to Boundaries:       -85.894 kW
       Mesh    2
       Max CFL number:  0.54E+00 at (   5,  35,  15)
       Max divergence:  0.28E-01 at (   6,  32,  15)
       Min divergence: -0.45E-01 at (   5,  33,  14)
       Max VN number:   0.24E+00 at (   5,  38,  16)
       Radiation Loss to Boundaries:        12.880 kW
 
       Time Step     700   October 13, 2020  17:49:38
       Step Size:    0.701E-01 s, Total Time:      65.28 s
       Pressure Iterations:      2
       Maximum Velocity Error:  0.33E-01 on Mesh   1 at (  66  11   7)
       Maximum Pressure Error:  0.17E+02 on Mesh   1 at (  66  11   8)
       ---------------------------------------------------------------
       Mesh    1
       Max CFL number:  0.81E+00 at (  71,  33,  15)
       Max divergence:  0.35E+01 at (  66,  11,   8)
       Min divergence: -0.76E+00 at (  61,  11,  10)
       Max VN number:   0.47E+00 at (  70,  20,  10)
       Total Heat Release Rate:            379.292 kW
       Radiation Loss to Boundaries:       -91.025 kW
       Mesh    2
       Max CFL number:  0.49E+00 at (   5,  32,  15)
       Max divergence:  0.26E-01 at (   5,  32,  16)
       Min divergence: -0.48E-01 at (   5,  32,  15)
       Max VN number:   0.23E+00 at (   3,  38,  22)
       Radiation Loss to Boundaries:        14.843 kW
 
       Time Step     800   October 13, 2020  17:51:21
       Step Size:    0.727E-01 s, Total Time:      72.45 s
       Pressure Iterations:      2
       Maximum Velocity Error:  0.26E-01 on Mesh   1 at (  66  13   7)
       Maximum Pressure Error:  0.17E+02 on Mesh   1 at (  66  13   8)
       ---------------------------------------------------------------
       Mesh    1
       Max CFL number:  0.88E+00 at (  71,  13,  13)
       Max divergence:  0.28E+01 at (  66,  13,   8)
       Min divergence: -0.78E+00 at (  61,  11,  10)
       Max VN number:   0.65E+00 at (  72,  13,  13)
       Total Heat Release Rate:            442.529 kW
       Radiation Loss to Boundaries:      -107.953 kW
       Mesh    2
       Max CFL number:  0.60E+00 at (   5,  32,  15)
       Max divergence:  0.32E-01 at (   4,  18,  13)
       Min divergence: -0.56E-01 at (   5,  32,  15)
       Max VN number:   0.28E+00 at (   5,  13,  15)
       Total Heat Release Rate:              0.003 kW
       Radiation Loss to Boundaries:        14.267 kW
 
       Time Step     900   October 13, 2020  17:53:05
       Step Size:    0.640E-01 s, Total Time:      79.40 s
       Pressure Iterations:      1
       Maximum Velocity Error:  0.47E-01 on Mesh   1 at (  70  14  11)
       Maximum Pressure Error:  0.54E+01 on Mesh   1 at (  73  14  15)
       ---------------------------------------------------------------
       Mesh    1
       Max CFL number:  0.86E+00 at (  72,  15,  13)
       Max divergence:  0.17E+01 at (  66,  10,   8)
       Min divergence: -0.92E+00 at (  63,   9,  10)
       Max VN number:   0.70E+00 at (  72,  14,  13)
       Total Heat Release Rate:            438.069 kW
       Radiation Loss to Boundaries:       -99.963 kW
       Mesh    2
       Max CFL number:  0.47E+00 at (   5,  34,  15)
       Max divergence:  0.27E-01 at (   6,  32,  15)
       Min divergence: -0.43E-01 at (   5,  34,  15)
       Max VN number:   0.23E+00 at (   4,  37,  22)
       Radiation Loss to Boundaries:        12.620 kW
 
       Time Step    1000   October 13, 2020  17:54:48
       Step Size:    0.658E-01 s, Total Time:      85.89 s
       Pressure Iterations:      2
       Maximum Velocity Error:  0.36E-01 on Mesh   1 at (  68  13   7)
       Maximum Pressure Error:  0.22E+02 on Mesh   1 at (  64  11   8)
       ---------------------------------------------------------------
       Mesh    1
       Max CFL number:  0.83E+00 at (  71,  33,  15)
       Max divergence:  0.29E+01 at (  64,  11,   8)
       Min divergence: -0.11E+01 at (  61,  11,  10)
       Max VN number:   0.53E+00 at (  72,  18,  13)
       Total Heat Release Rate:            507.078 kW
       Radiation Loss to Boundaries:      -130.304 kW
       Mesh    2
       Max CFL number:  0.53E+00 at (   5,  34,  15)
       Max divergence:  0.39E-01 at (   4,  36,  16)
       Min divergence: -0.55E-01 at (   5,  34,  15)
       Max VN number:   0.28E+00 at (   6,  36,  20)
       Radiation Loss to Boundaries:        15.599 kW
 
       Time Step    1100   October 13, 2020  17:56:32
       Step Size:    0.626E-01 s, Total Time:      92.03 s
       Pressure Iterations:      2
       Maximum Velocity Error:  0.36E-01 on Mesh   1 at (  68  20   7)
       Maximum Pressure Error:  0.26E+02 on Mesh   1 at (  66  12   8)
       ---------------------------------------------------------------
       Mesh    1
       Max CFL number:  0.86E+00 at (  71,  15,  10)
       Max divergence:  0.26E+01 at (  68,  20,   8)
       Min divergence: -0.61E+00 at (  70,  16,  10)
       Max VN number:   0.51E+00 at (  72,  16,  13)
       Total Heat Release Rate:            547.922 kW
       Radiation Loss to Boundaries:      -149.382 kW
       Mesh    2
       Max CFL number:  0.55E+00 at (   5,  34,  15)
       Max divergence:  0.48E-01 at (   6,  32,  14)
       Min divergence: -0.90E-01 at (   5,  34,  15)
       Max VN number:   0.25E+00 at (   6,  37,  20)
       Total Heat Release Rate:              0.001 kW
       Radiation Loss to Boundaries:        16.024 kW
 
       Time Step    1200   October 13, 2020  17:58:17
       Step Size:    0.633E-01 s, Total Time:      97.93 s
       Pressure Iterations:      2
       Maximum Velocity Error:  0.56E-01 on Mesh   1 at (  69  20   7)
       Maximum Pressure Error:  0.48E+02 on Mesh   1 at (  69  20   8)
       ---------------------------------------------------------------
       Mesh    1
       Max CFL number:  0.94E+00 at (  60,  16,  13)
       Max divergence:  0.45E+01 at (  64,  18,   8)
       Min divergence: -0.11E+01 at (  61,  15,  10)
       Max VN number:   0.66E+00 at (  72,  18,  13)
       Total Heat Release Rate:            528.406 kW
       Radiation Loss to Boundaries:      -124.832 kW
       Mesh    2
       Max CFL number:  0.52E+00 at (   5,  32,  15)
       Max divergence:  0.46E-01 at (   5,  32,  16)
       Min divergence: -0.71E-01 at (   5,  32,  14)
       Max VN number:   0.28E+00 at (   6,  37,  20)
       Total Heat Release Rate:              0.004 kW
       Radiation Loss to Boundaries:        14.866 kW
 
       Time Step    1300   October 13, 2020  18:00:03
       Step Size:    0.549E-01 s, Total Time:     103.48 s
       Pressure Iterations:      2
       Maximum Velocity Error:  0.63E-01 on Mesh   1 at (  68  13   7)
       Maximum Pressure Error:  0.31E+02 on Mesh   1 at (  63  16   8)
       ---------------------------------------------------------------
       Mesh    1
       Max CFL number:  0.83E+00 at (  61,  16,  10)
       Max divergence:  0.31E+01 at (  67,  12,   8)
       Min divergence: -0.90E+00 at (  64,  19,   9)
       Max VN number:   0.67E+00 at (  72,  16,  13)
       Total Heat Release Rate:            598.888 kW
       Radiation Loss to Boundaries:      -140.559 kW
       Mesh    2
       Max CFL number:  0.62E+00 at (   1,  15,  15)
       Max divergence:  0.72E-01 at (   4,  16,  13)
       Min divergence: -0.94E-01 at (   1,  14,  15)
       Max VN number:   0.33E+00 at (   5,  15,  15)
       Total Heat Release Rate:              0.048 kW
       Radiation Loss to Boundaries:        16.028 kW
 
       Time Step    1400   October 13, 2020  18:01:48
       Step Size:    0.457E-01 s, Total Time:     109.03 s
       Pressure Iterations:      2
       Maximum Velocity Error:  0.45E-01 on Mesh   1 at (  66  11   7)
       Maximum Pressure Error:  0.59E+02 on Mesh   1 at (  66  11   8)
       ---------------------------------------------------------------
       Mesh    1
       Max CFL number:  0.81E+00 at (  72,  14,  13)
       Max divergence:  0.50E+01 at (  66,  11,   8)
       Min divergence: -0.11E+01 at (  71,  15,  10)
       Max VN number:   0.66E+00 at (  72,  14,  13)
       Total Heat Release Rate:            719.911 kW
       Radiation Loss to Boundaries:      -191.017 kW
       Mesh    2
       Max CFL number:  0.42E+00 at (   5,  34,  15)
       Max divergence:  0.56E-01 at (   2,  32,  14)
       Min divergence: -0.93E-01 at (   5,  32,  15)
       Max VN number:   0.21E+00 at (   5,  14,  15)
       Total Heat Release Rate:              0.004 kW
       Radiation Loss to Boundaries:        18.204 kW
 
       Time Step    1500   October 13, 2020  18:03:33
       Step Size:    0.541E-01 s, Total Time:     114.87 s
       Pressure Iterations:      2
       Maximum Velocity Error:  0.28E-01 on Mesh   1 at (  65  15   7)
       Maximum Pressure Error:  0.31E+02 on Mesh   1 at (  70  14   8)
       ---------------------------------------------------------------
       Mesh    1
       Max CFL number:  0.94E+00 at (  72,  17,  13)
       Max divergence:  0.32E+01 at (  71,  15,   9)
       Min divergence: -0.25E+01 at (  72,  17,  13)
       Max VN number:   0.79E+00 at (  71,  16,  10)
       Total Heat Release Rate:            712.785 kW
       Radiation Loss to Boundaries:      -190.392 kW
       Mesh    2
       Max CFL number:  0.55E+00 at (   5,  33,  15)
       Max divergence:  0.53E-01 at (   6,  33,  14)
       Min divergence: -0.89E-01 at (   5,  32,  14)
       Max VN number:   0.22E+00 at (   5,  10,  15)
       Total Heat Release Rate:              0.008 kW
       Radiation Loss to Boundaries:        16.141 kW
 
       Time Step    1600   October 13, 2020  18:05:18
       Step Size:    0.572E-01 s, Total Time:     120.18 s
       Pressure Iterations:      2
       Maximum Velocity Error:  0.40E-01 on Mesh   1 at (  65  12   7)
       Maximum Pressure Error:  0.43E+02 on Mesh   1 at (  62  17   8)
       ---------------------------------------------------------------
       Mesh    1
       Max CFL number:  0.88E+00 at (  61,  11,  10)
       Max divergence:  0.60E+01 at (  65,  12,   8)
       Min divergence: -0.13E+01 at (  61,  12,  10)
       Max VN number:   0.56E+00 at (  62,  14,  10)
       Total Heat Release Rate:            699.199 kW
       Radiation Loss to Boundaries:      -173.334 kW
       Mesh    2
       Max CFL number:  0.57E+00 at (   5,  32,  15)
       Max divergence:  0.57E-01 at (   4,  18,  14)
       Min divergence: -0.10E+00 at (   5,  34,  15)
       Max VN number:   0.25E+00 at (   6,  37,  20)
       Total Heat Release Rate:              0.003 kW
       Radiation Loss to Boundaries:        15.722 kW
 
[...]
       Max divergence:  0.20E+00 at (   6,  30,  13)
       Min divergence: -0.50E+00 at (   5,  32,  15)
       Max VN number:   0.25E+00 at (   5,  32,  15)
       Total Heat Release Rate:              0.044 kW
       Radiation Loss to Boundaries:       334.401 kW
 
       Time Step   17900   October 13, 2020  23:02:25
       Step Size:    0.373E-01 s, Total Time:     724.67 s
       Pressure Iterations:      2
       Maximum Velocity Error:  0.40E-01 on Mesh   1 at (  66  17   7)
       Maximum Pressure Error:  0.10E+03 on Mesh   1 at (  63  19   8)
       ---------------------------------------------------------------
       Mesh    1
       Max CFL number:  0.91E+00 at (  60,  14,  11)
       Max divergence:  0.82E+01 at (  67,   9,   9)
       Min divergence: -0.15E+01 at (  65,   9,  12)
       Max VN number:   0.50E+00 at (  72,  14,  13)
       Total Heat Release Rate:           1967.953 kW
       Radiation Loss to Boundaries:       -90.739 kW
       Mesh    2
       Max CFL number:  0.62E+00 at (   5,  33,  15)
       Max divergence:  0.26E+00 at (   2,  32,  14)
       Min divergence: -0.38E+00 at (   5,  32,  14)
       Max VN number:   0.28E+00 at (   4,  32,  16)
       Total Heat Release Rate:              0.095 kW
       Radiation Loss to Boundaries:       308.281 kW
 
       Time Step   18000   October 13, 2020  23:04:17
       Step Size:    0.392E-01 s, Total Time:     728.20 s
       Pressure Iterations:      3
       Maximum Velocity Error:  0.36E-01 on Mesh   1 at (  69  12   7)
       Maximum Pressure Error:  0.13E+03 on Mesh   1 at (  68  10   8)
       ---------------------------------------------------------------
       Mesh    1
       Max CFL number:  0.91E+00 at (  72,  18,  13)
       Max divergence:  0.12E+02 at (  64,  13,   8)
       Min divergence: -0.26E+01 at (  64,  11,   8)
       Max VN number:   0.62E+00 at (  72,  18,  13)
       Total Heat Release Rate:           2232.154 kW
       Radiation Loss to Boundaries:       -92.439 kW
       Mesh    2
       Max CFL number:  0.63E+00 at (   5,   1,  15)
       Max divergence:  0.22E+00 at (   4,  32,  14)
       Min divergence: -0.53E+00 at (   5,  32,  15)
       Max VN number:   0.31E+00 at (   5,  32,  15)
       Total Heat Release Rate:              0.016 kW
       Radiation Loss to Boundaries:       389.920 kW
 
       Time Step   18100   October 13, 2020  23:06:06
       Step Size:    0.398E-01 s, Total Time:     732.08 s
       Pressure Iterations:      3
       Maximum Velocity Error:  0.36E-01 on Mesh   1 at (  68   9   7)
       Maximum Pressure Error:  0.12E+03 on Mesh   1 at (  68   9   8)
       ---------------------------------------------------------------
       Mesh    1
       Max CFL number:  0.85E+00 at (  68,   9,  12)
       Max divergence:  0.70E+01 at (  70,  12,   8)
       Min divergence: -0.13E+01 at (  70,  11,   9)
       Max VN number:   0.54E+00 at (  72,  16,  13)
       Total Heat Release Rate:           2498.654 kW
       Radiation Loss to Boundaries:      -202.968 kW
       Mesh    2
       Max CFL number:  0.68E+00 at (   5,  32,  15)
       Max divergence:  0.25E+00 at (   4,  33,  14)
       Min divergence: -0.38E+00 at (   5,  32,  15)
       Max VN number:   0.31E+00 at (   4,  33,  14)
       Total Heat Release Rate:              0.109 kW
       Radiation Loss to Boundaries:       338.822 kW
 
       Time Step   18200   October 13, 2020  23:07:57
       Step Size:    0.391E-01 s, Total Time:     735.72 s
       Pressure Iterations:      3
       Maximum Velocity Error:  0.32E-01 on Mesh   1 at (  70  13   7)
       Maximum Pressure Error:  0.42E+03 on Mesh   1 at (  70  13   8)
       ---------------------------------------------------------------
       Mesh    1
       Max CFL number:  0.83E+00 at (  71,  32,  15)
       Max divergence:  0.63E+01 at (  63,  10,   8)
       Min divergence: -0.14E+01 at (  61,  51,  17)
       Max VN number:   0.62E+00 at (  70,  13,   8)
       Total Heat Release Rate:           2629.519 kW
       Radiation Loss to Boundaries:      -256.849 kW
       Mesh    2
       Max CFL number:  0.71E+00 at (   5,  33,  15)
       Max divergence:  0.31E+00 at (   2,  32,  14)
       Min divergence: -0.48E+00 at (   5,  32,  14)
       Max VN number:   0.32E+00 at (   5,  33,  15)
       Total Heat Release Rate:              0.162 kW
       Radiation Loss to Boundaries:       320.194 kW
 
       Time Step   18300   October 13, 2020  23:09:48
       Step Size:    0.365E-01 s, Total Time:     739.44 s
       Pressure Iterations:      4
       Maximum Velocity Error:  0.87E-01 on Mesh   1 at (  70   9   8)
       Maximum Pressure Error:  0.44E+03 on Mesh   1 at (  70  11   8)
       ---------------------------------------------------------------
       Mesh    1
       Max CFL number:  0.97E+00 at (  70,  11,   8)
       Max divergence:  0.91E+01 at (  55,   9,   9)
       Min divergence: -0.20E+01 at (  64,  10,   9)
       Max VN number:   0.53E+00 at (  70,  11,   8)
       Total Heat Release Rate:           3087.884 kW
       Radiation Loss to Boundaries:      -416.927 kW
       Mesh    2
       Max CFL number:  0.64E+00 at (   5,  60,  22)
       Max divergence:  0.28E+00 at (   6,  13,  12)
       Min divergence: -0.41E+00 at (   5,  33,  15)
       Max VN number:   0.30E+00 at (   5,  14,  15)
       Total Heat Release Rate:              0.142 kW
       Radiation Loss to Boundaries:       383.027 kW
 
       Time Step   18400   October 13, 2020  23:11:41
       Step Size:    0.332E-01 s, Total Time:     742.69 s
       Pressure Iterations:      4
       Maximum Velocity Error:  0.69E-01 on Mesh   1 at (  66   8   7)
       Maximum Pressure Error:  0.39E+03 on Mesh   1 at (  66   8   8)
       ---------------------------------------------------------------
       Mesh    1
       Max CFL number:  0.94E+00 at (  66,   7,  13)
       Max divergence:  0.12E+02 at (  68,  44,  15)
       Min divergence: -0.23E+01 at (  66,   8,   9)
       Max VN number:   0.55E+00 at (  66,   8,   8)
       Total Heat Release Rate:           3886.427 kW
       Radiation Loss to Boundaries:      -793.550 kW
       Mesh    2
       Max CFL number:  0.61E+00 at (   5,  60,  22)
       Max divergence:  0.29E+00 at (   5,  33,  14)
       Min divergence: -0.78E+00 at (   5,  32,  15)
       Max VN number:   0.28E+00 at (   5,  32,  15)
       Total Heat Release Rate:              0.028 kW
       Radiation Loss to Boundaries:       362.589 kW
 
       Time Step   18500   October 13, 2020  23:13:32
       Step Size:    0.292E-01 s, Total Time:     745.93 s
       Pressure Iterations:      4
       Maximum Velocity Error:  0.62E-01 on Mesh   1 at (  57   8   9)
       Maximum Pressure Error:  0.22E+03 on Mesh   1 at (  50  22   9)
       ---------------------------------------------------------------
       Mesh    1
       Max CFL number:  0.80E+00 at (  58,  14,  13)
       Max divergence:  0.18E+02 at (  51,  21,   9)
       Min divergence: -0.19E+01 at (  57,   9,   9)
       Max VN number:   0.49E+00 at (  59,  14,  13)
       Total Heat Release Rate:           3723.021 kW
       Radiation Loss to Boundaries:      -670.435 kW
       Mesh    2
       Max CFL number:  0.48E+00 at (   5,  60,  22)
       Max divergence:  0.31E+00 at (   3,  32,  14)
       Min divergence: -0.71E+00 at (   5,  32,  15)
       Max VN number:   0.21E+00 at (   5,  32,  15)
       Total Heat Release Rate:              0.041 kW
       Radiation Loss to Boundaries:       358.416 kW
 
       Time Step   18600   October 13, 2020  23:15:24
       Step Size:    0.287E-01 s, Total Time:     749.13 s
       Pressure Iterations:      3
       Maximum Velocity Error:  0.95E-01 on Mesh   1 at (  62   9   8)
       Maximum Pressure Error:  0.34E+03 on Mesh   1 at (  63   9   8)
       ---------------------------------------------------------------
       Mesh    1
       Max CFL number:  0.77E+00 at (  68,  60,  22)
       Max divergence:  0.12E+02 at (  58,  17,   9)
       Min divergence: -0.15E+01 at (  57,  18,  11)
       Max VN number:   0.49E+00 at (  59,  18,  13)
       Total Heat Release Rate:           4380.500 kW
       Radiation Loss to Boundaries:      -897.654 kW
       Mesh    2
       Max CFL number:  0.51E+00 at (   5,  60,  22)
       Max divergence:  0.30E+00 at (   5,  33,  14)
       Min divergence: -0.55E+00 at (   5,  32,  15)
       Max VN number:   0.25E+00 at (   5,  32,  15)
       Total Heat Release Rate:              0.124 kW
       Radiation Loss to Boundaries:       399.661 kW
 
       Time Step   18700   October 13, 2020  23:17:16
       Step Size:    0.307E-01 s, Total Time:     752.07 s
       Pressure Iterations:      3
       Maximum Velocity Error:  0.46E-01 on Mesh   1 at (  54  23   8)
       Maximum Pressure Error:  0.29E+03 on Mesh   1 at (  55  23   9)
       ---------------------------------------------------------------
       Mesh    1
       Max CFL number:  0.93E+00 at (  66,  60,  22)
       Max divergence:  0.23E+02 at (  54,  23,   9)
       Min divergence: -0.15E+01 at (  55,   7,   9)
       Max VN number:   0.61E+00 at (  59,  14,  13)
       Total Heat Release Rate:           4384.094 kW
       Radiation Loss to Boundaries:     -1015.521 kW
       Mesh    2
       Max CFL number:  0.54E+00 at (   5,  60,  22)
       Max divergence:  0.31E+00 at (   3,  32,  14)
       Min divergence: -0.45E+00 at (   5,  32,  15)
       Max VN number:   0.26E+00 at (   1,  60,  22)
       Total Heat Release Rate:              0.101 kW
       Radiation Loss to Boundaries:       363.469 kW
 
       Time Step   18800   October 13, 2020  23:19:07
       Step Size:    0.293E-01 s, Total Time:     755.03 s
       Pressure Iterations:      3
       Maximum Velocity Error:  0.38E-01 on Mesh   1 at (  57   8   9)
       Maximum Pressure Error:  0.35E+03 on Mesh   1 at (  52   8   9)
       ---------------------------------------------------------------
       Mesh    1
       Max CFL number:  0.84E+00 at (  58,  15,  13)
       Max divergence:  0.18E+02 at (  58,  12,   9)
       Min divergence: -0.16E+01 at (  57,  11,  10)
       Max VN number:   0.48E+00 at (  59,  14,  13)
       Total Heat Release Rate:           4753.624 kW
       Radiation Loss to Boundaries:     -1100.474 kW
       Mesh    2
       Max CFL number:  0.54E+00 at (   5,  60,  22)
       Max divergence:  0.25E+00 at (   4,  17,  14)
       Min divergence: -0.38E+00 at (   5,  34,  15)
       Max VN number:   0.22E+00 at (   4,  37,  22)
       Total Heat Release Rate:              0.096 kW
       Radiation Loss to Boundaries:       387.398 kW
 
       Time Step   18900   October 13, 2020  23:21:00
       Step Size:    0.274E-01 s, Total Time:     757.85 s
       Pressure Iterations:      6
       Maximum Velocity Error:  0.46E-01 on Mesh   1 at (  63   8   7)
       Maximum Pressure Error:  0.34E+03 on Mesh   1 at (  63   8   8)
       ---------------------------------------------------------------
       Mesh    1
       Max CFL number:  0.90E+00 at (  71,  60,  22)
       Max divergence:  0.13E+02 at (  65,  52,  15)
       Min divergence: -0.18E+01 at (  68,  57,  16)
       Max VN number:   0.56E+00 at (  63,   8,   8)
       Total Heat Release Rate:           5326.351 kW
       Radiation Loss to Boundaries:     -1317.316 kW
       Mesh    2
       Max CFL number:  0.58E+00 at (   5,  60,  22)
       Max divergence:  0.25E+00 at (   6,   7,  12)
       Min divergence: -0.39E+00 at (   5,  32,  15)
       Max VN number:   0.23E+00 at (   5,  48,  22)
       Total Heat Release Rate:              0.183 kW
       Radiation Loss to Boundaries:       403.982 kW
 
       Time Step   19000   October 13, 2020  23:23:11
       Step Size:    0.261E-01 s, Total Time:     760.47 s
       Pressure Iterations:      4
       Maximum Velocity Error:  0.58E-01 on Mesh   1 at (  70  53  15)
       Maximum Pressure Error:  0.40E+03 on Mesh   1 at (  70  10   8)
       ---------------------------------------------------------------
       Mesh    1
       Max CFL number:  0.94E+00 at (  71,  60,  22)
       Max divergence:  0.17E+02 at (  58,  14,   9)
       Min divergence: -0.20E+01 at (  58,  16,  10)
       Max VN number:   0.45E+00 at (  59,  18,  13)
       Total Heat Release Rate:           5345.651 kW
       Radiation Loss to Boundaries:     -1317.208 kW
       Mesh    2
       Max CFL number:  0.50E+00 at (   5,  60,  22)
       Max divergence:  0.36E+00 at (   5,  32,  14)
       Min divergence: -0.65E+00 at (   5,  32,  15)
       Max VN number:   0.21E+00 at (   5,  53,  22)
       Total Heat Release Rate:              0.082 kW
       Radiation Loss to Boundaries:       376.194 kW
 
       Time Step   19100   October 13, 2020  23:24:59
       Step Size:    0.268E-01 s, Total Time:     763.13 s
       Pressure Iterations:      3
       Maximum Velocity Error:  0.82E-01 on Mesh   1 at (  70   9   8)
       Maximum Pressure Error:  0.43E+03 on Mesh   1 at (  64  54  15)
       ---------------------------------------------------------------
       Mesh    1
       Max CFL number:  0.90E+00 at (  71,  60,  22)
       Max divergence:  0.15E+02 at (  66,   9,   8)
       Min divergence: -0.16E+01 at (  63,  10,   9)
       Max VN number:   0.43E+00 at (  59,  20,  13)
       Total Heat Release Rate:           5468.401 kW
       Radiation Loss to Boundaries:     -1247.367 kW
       Mesh    2
       Max CFL number:  0.56E+00 at (   5,  60,  22)
       Max divergence:  0.25E+00 at (   5,  14,  15)
       Min divergence: -0.43E+00 at (   5,  32,  14)
       Max VN number:   0.21E+00 at (   5,  56,  21)
       Total Heat Release Rate:              0.281 kW
       Radiation Loss to Boundaries:       418.456 kW
 
       Time Step   19200   October 13, 2020  23:26:47
       Step Size:    0.263E-01 s, Total Time:     765.75 s
       Pressure Iterations:      4
       Maximum Velocity Error:  0.72E-01 on Mesh   1 at (  70  22   8)
       Maximum Pressure Error:  0.36E+03 on Mesh   1 at (  70  21   8)
       ---------------------------------------------------------------
       Mesh    1
       Max CFL number:  0.87E+00 at (  62,  60,  22)
       Max divergence:  0.20E+02 at (  69,  54,  15)
       Min divergence: -0.17E+01 at (  63,  56,  17)
       Max VN number:   0.46E+00 at (  59,  13,  13)
       Total Heat Release Rate:           5452.917 kW
       Radiation Loss to Boundaries:     -1296.948 kW
       Mesh    2
       Max CFL number:  0.61E+00 at (   5,  60,  22)
       Max divergence:  0.21E+00 at (   6,   9,  12)
       Min divergence: -0.42E+00 at (   5,  32,  15)
       Max VN number:   0.28E+00 at (   5,  60,  22)
       Total Heat Release Rate:              0.044 kW
       Radiation Loss to Boundaries:       392.518 kW
 
       Time Step   19300   October 13, 2020  23:28:34
       Step Size:    0.279E-01 s, Total Time:     768.28 s
       Pressure Iterations:      4
       Maximum Velocity Error:  0.77E-01 on Mesh   1 at (  57   8   9)
       Maximum Pressure Error:  0.49E+03 on Mesh   1 at (  65   9   8)
       ---------------------------------------------------------------
       Mesh    1
       Max CFL number:  0.90E+00 at (  58,  15,   9)
       Max divergence:  0.21E+02 at (  58,  18,   9)
       Min divergence: -0.20E+01 at (  58,  18,  10)
       Max VN number:   0.57E+00 at (  54,  21,  11)
       Total Heat Release Rate:           6082.056 kW
       Radiation Loss to Boundaries:     -1710.268 kW
       Mesh    2
       Max CFL number:  0.52E+00 at (   5,  60,  22)
       Max divergence:  0.21E+00 at (   6,  32,  15)
       Min divergence: -0.43E+00 at (   5,  32,  15)
       Max VN number:   0.26E+00 at (   5,  10,  15)
       Total Heat Release Rate:              0.081 kW
       Radiation Loss to Boundaries:       384.449 kW
 
       Time Step   19400   October 13, 2020  23:30:22
       Step Size:    0.225E-01 s, Total Time:     770.73 s
       Pressure Iterations:      3
       Maximum Velocity Error:  0.55E-01 on Mesh   1 at (  62  10  10)
       Maximum Pressure Error:  0.34E+03 on Mesh   1 at (  67  13   8)
       ---------------------------------------------------------------
       Mesh    1
       Max CFL number:  0.88E+00 at (  68,  60,  22)
       Max divergence:  0.16E+02 at (  63,  10,   8)
       Min divergence: -0.21E+01 at (  62,  45,  16)
       Max VN number:   0.42E+00 at (  68,  60,  22)
       Total Heat Release Rate:           6883.818 kW
       Radiation Loss to Boundaries:     -1773.855 kW
       Mesh    2
       Max CFL number:  0.42E+00 at (   5,  60,  22)
       Max divergence:  0.27E+00 at (   5,  15,  15)
       Min divergence: -0.57E+00 at (   5,  32,  15)
       Max VN number:   0.18E+00 at (   5,  10,  15)
       Total Heat Release Rate:              0.092 kW
       Radiation Loss to Boundaries:       442.102 kW
 
       Time Step   19500   October 13, 2020  23:32:10
       Step Size:    0.249E-01 s, Total Time:     773.12 s
       Pressure Iterations:      2
       Maximum Velocity Error:  0.96E-01 on Mesh   1 at (  70  53  15)
       Maximum Pressure Error:  0.36E+03 on Mesh   1 at (  57   9   9)
       ---------------------------------------------------------------
       Mesh    1
       Max CFL number:  0.92E+00 at (  71,  60,  22)
       Max divergence:  0.24E+02 at (  58,  18,   9)
       Min divergence: -0.20E+01 at (  69,  52,  16)
       Max VN number:   0.42E+00 at (  59,  18,  13)
       Total Heat Release Rate:           6649.509 kW
       Radiation Loss to Boundaries:     -1771.674 kW
       Mesh    2
       Max CFL number:  0.53E+00 at (   5,  60,  22)
       Max divergence:  0.31E+00 at (   5,  34,  14)
       Min divergence: -0.50E+00 at (   5,  32,  15)
       Max VN number:   0.21E+00 at (   5,  60,  22)
       Total Heat Release Rate:              0.084 kW
       Radiation Loss to Boundaries:       380.624 kW
 
       Time Step   19600   October 13, 2020  23:33:56
       Step Size:    0.263E-01 s, Total Time:     775.52 s
       Pressure Iterations:      4
       Maximum Velocity Error:  0.76E-01 on Mesh   1 at (  63  54  14)
       Maximum Pressure Error:  0.31E+03 on Mesh   1 at (  58  13   9)
       ---------------------------------------------------------------
       Mesh    1
       Max CFL number:  0.92E+00 at (  58,  18,   9)
       Max divergence:  0.16E+02 at (  63,  53,  15)
       Min divergence: -0.19E+01 at (  57,  13,  11)
       Max VN number:   0.59E+00 at (  59,  13,  13)
       Total Heat Release Rate:           6521.591 kW
       Radiation Loss to Boundaries:     -1765.401 kW
       Mesh    2
       Max CFL number:  0.57E+00 at (   5,  60,  22)
       Max divergence:  0.39E+00 at (   6,  30,  13)
       Min divergence: -0.57E+00 at (   5,  32,  15)
       Max VN number:   0.22E+00 at (   5,  53,  22)
       Total Heat Release Rate:              0.457 kW
       Radiation Loss to Boundaries:       396.502 kW
 
       Time Step   19700   October 13, 2020  23:35:43
       Step Size:    0.262E-01 s, Total Time:     777.85 s
       Pressure Iterations:      4
       Maximum Velocity Error:  0.83E-01 on Mesh   1 at (  57   8   9)
       Maximum Pressure Error:  0.27E+03 on Mesh   1 at (  62  48  15)
       ---------------------------------------------------------------
       Mesh    1
       Max CFL number:  0.96E+00 at (  58,  16,   9)
       Max divergence:  0.16E+02 at (  65,   9,   8)
       Min divergence: -0.24E+01 at (  52,   9,  11)
       Max VN number:   0.48E+00 at (  64,  60,  22)
       Total Heat Release Rate:           7194.411 kW
       Radiation Loss to Boundaries:     -1793.707 kW
       Mesh    2
       Max CFL number:  0.50E+00 at (   5,  60,  22)
       Max divergence:  0.34E+00 at (   6,  30,  12)
       Min divergence: -0.47E+00 at (   5,  32,  14)
       Max VN number:   0.21E+00 at (   5,  49,  21)
       Total Heat Release Rate:              0.057 kW
       Radiation Loss to Boundaries:       463.976 kW
 
