
 Fire Dynamics Simulator

 Current Date     : October 13, 2020  14:09:07
 Revision         : FDS6.7.5-254-g2178300-master
 Revision Date    : Fri Oct 9 15:16:47 2020 -0400
 Compiler         : Intel ifort 18.0.1
 Compilation Date : Oct 12, 2020 10:43:49

 MPI Enabled;    Number of MPI Processes:       7
 OpenMP Enabled; Number of OpenMP Threads:      2

 MPI version: 3.1
 MPI library version: Intel(R) MPI Library 2018 Update 1 for Linux* OS


 Job TITLE        : 
 Job ID string    : goldbeck_fft_simplified


 Grid Dimensions, Mesh     1

   Cells in the X Direction           164
   Cells in the Y Direction            60
   Cells in the Z Direction            40
   Number of Grid Cells            393600


 Physical Dimensions, Mesh     1

   Length (m)                      32.800
   Width  (m)                      12.000
   Height (m)                       8.000
   Initial Time Step (s)            0.112

 Grid Dimensions, Mesh     2

   Cells in the X Direction           164
   Cells in the Y Direction            60
   Cells in the Z Direction            40
   Number of Grid Cells            393600


 Physical Dimensions, Mesh     2

   Length (m)                      32.800
   Width  (m)                      12.000
   Height (m)                       8.000
   Initial Time Step (s)            0.112

 Grid Dimensions, Mesh     3

   Cells in the X Direction           164
   Cells in the Y Direction            60
   Cells in the Z Direction            40
   Number of Grid Cells            393600


 Physical Dimensions, Mesh     3

   Length (m)                      32.800
   Width  (m)                      12.000
   Height (m)                       8.000
   Initial Time Step (s)            0.112

 Grid Dimensions, Mesh     4

   Cells in the X Direction           168
   Cells in the Y Direction            60
   Cells in the Z Direction            40
   Number of Grid Cells            403200


 Physical Dimensions, Mesh     4

   Length (m)                      33.600
   Width  (m)                      12.000
   Height (m)                       8.000
   Initial Time Step (s)            0.112

 Grid Dimensions, Mesh     5

   Cells in the X Direction            78
   Cells in the Y Direction            60
   Cells in the Z Direction            40
   Number of Grid Cells            187200


 Physical Dimensions, Mesh     5

   Length (m)                      15.600
   Width  (m)                      12.000
   Height (m)                       8.000
   Initial Time Step (s)            0.112

 Grid Dimensions, Mesh     6

   Cells in the X Direction            90
   Cells in the Y Direction            60
   Cells in the Z Direction            40
   Number of Grid Cells            216000


 Physical Dimensions, Mesh     6

   Length (m)                      18.000
   Width  (m)                      12.000
   Height (m)                       8.000
   Initial Time Step (s)            0.112

 Grid Dimensions, Mesh     7

   Cells in the X Direction           168
   Cells in the Y Direction            60
   Cells in the Z Direction            40
   Number of Grid Cells            403200


 Physical Dimensions, Mesh     7

   Length (m)                      33.600
   Width  (m)                      12.000
   Height (m)                       8.000
   Initial Time Step (s)            0.112

Total Number of Grid Cells       2390400


 Miscellaneous Parameters

   Simulation Start Time (s)          0.0
   Simulation End Time (s)         5400.0
   LES Calculation
   Eddy Viscosity:           Deardorff Model (C_DEARDORFF = 0.10)
   Near-wall Eddy Viscosity: Smagorinsky with Van Driest damping (C_SMAGORINSKY = 0.20)
   Turbulent Prandtl Number:         0.50
   Turbulent Schmidt Number:         0.50
   Ambient Temperature (C):         20.00


 Mass Fraction Transformation Matrix to Convert Species Mixtures (Columns) to Primitive Species (Rows)

                         AIR       REAC_FUE  PRODUCTS
   REAC_FUEL             0.000000  1.000000  0.000000
   NITROGEN              0.762470  0.000000  0.702658
   OXYGEN                0.230997  0.000000  0.000000
   CARBON DIOXIDE        0.000591  0.000000  0.213555
   CARBON MONOXIDE       0.000000  0.000000  0.000000
   WATER VAPOR           0.005941  0.000000  0.076457
   SOOT                  0.000000  0.000000  0.007330
   HYDROGEN              0.000000  0.000000  0.000000


 Primitive Species Information

   REAC_FUEL
   Gas Species
   Molecular Weight (g/mol)            14.95845
   Ambient Density (kg/m^3)            0.622
   Enthalpy of Formation (J/kg)       -9.27E+06

   NITROGEN
   Gas Species
   Molecular Weight (g/mol)            28.01340
   Ambient Density (kg/m^3)            1.165
   Enthalpy of Formation (J/kg)        0.00E+00

   OXYGEN
   Gas Species
   Molecular Weight (g/mol)            31.99880
   Ambient Density (kg/m^3)            1.330
   Enthalpy of Formation (J/kg)        0.00E+00

   CARBON DIOXIDE
   Gas Species
   Molecular Weight (g/mol)            44.00950
   Ambient Density (kg/m^3)            1.830
   Enthalpy of Formation (J/kg)       -8.94E+06

   CARBON MONOXIDE
   Gas Species
   Molecular Weight (g/mol)            28.01010
   Ambient Density (kg/m^3)            1.164
   Enthalpy of Formation (J/kg)       -3.95E+06

   WATER VAPOR
   Gas Species
   Molecular Weight (g/mol)            18.01528
   Ambient Density (kg/m^3)            0.749
   Enthalpy of Formation (J/kg)       -1.34E+07

   SOOT
   Gas Species
   Molecular Weight (g/mol)            10.91042
   Ambient Density (kg/m^3)            0.454
   Enthalpy of Formation (J/kg)        0.00E+00

   HYDROGEN
   Gas Species
   Molecular Weight (g/mol)             2.01588
   Ambient Density (kg/m^3)            0.084
   Enthalpy of Formation (J/kg)        0.00E+00


 Tracked (Lumped) Species Information

   AIR
   Molecular Weight (g/mol)            28.75199
   Ambient Density (kg/m^3)            1.195
   Initial Mass Fraction               1.000
   Enthalpy of Formation (J/kg)     -8.50E+04

   Sub Species                    Mass Fraction     Mole Fraction
   NITROGEN                       7.624701E-01      7.825730E-01
   OXYGEN                         2.309974E-01      2.075589E-01
   CARBON DIOXIDE                 5.914651E-04      3.864120E-04
   WATER VAPOR                    5.940984E-03      9.481679E-03
 
     Viscosity (kg/m/s) Ambient,  293 K:  1.80E-05
                                  500 K:  2.61E-05
                                 1000 K:  4.13E-05
                                 1500 K:  5.37E-05
   Therm. Cond. (W/m/K) Ambient,  293 K:  2.56E-02
                                  500 K:  3.81E-02
                                 1000 K:  6.69E-02
                                 1500 K:  9.25E-02
        Enthalpy (J/kg) Ambient,  293 K: -9.01E+04
                                  500 K:  1.22E+05
                                 1000 K:  6.72E+05
                                 1500 K:  1.27E+06
    Spec. Heat (J/kg/K) Ambient,  293 K:  1.02E+03
                                  500 K:  1.04E+03
                                 1000 K:  1.16E+03
                                 1500 K:  1.23E+03
   Diff. Coeff. (m^2/s) Ambient,  293 K:  1.99E-05
                                  500 K:  4.96E-05
                                 1000 K:  1.58E-04
                                 1500 K:  3.09E-04

   REAC_FUEL
   Molecular Weight (g/mol)            14.95845
   Ambient Density (kg/m^3)            0.622
   Initial Mass Fraction               0.000
   Enthalpy of Formation (J/kg)     -9.27E+06

   Sub Species                    Mass Fraction     Mole Fraction
   REAC_FUEL                      1.000000E+00      1.000000E+00
 
     Viscosity (kg/m/s) Ambient,  293 K:  1.27E-05
                                  500 K:  1.84E-05
                                 1000 K:  2.89E-05
                                 1500 K:  3.75E-05
   Therm. Cond. (W/m/K) Ambient,  293 K:  3.48E-02
                                  500 K:  5.03E-02
                                 1000 K:  7.91E-02
                                 1500 K:  1.03E-01
        Enthalpy (J/kg) Ambient,  293 K: -9.28E+06
                                  500 K: -8.87E+06
                                 1000 K: -7.90E+06
                                 1500 K: -6.93E+06
    Spec. Heat (J/kg/K) Ambient,  293 K:  1.95E+03
                                  500 K:  1.95E+03
                                 1000 K:  1.95E+03
                                 1500 K:  1.95E+03
   Diff. Coeff. (m^2/s) Ambient,  293 K:  2.38E-05
                                  500 K:  5.91E-05
                                 1000 K:  1.88E-04
                                 1500 K:  3.68E-04

   PRODUCTS
   Molecular Weight (g/mol)            28.69337
   Ambient Density (kg/m^3)            1.193
   Initial Mass Fraction               0.000
   Enthalpy of Formation (J/kg)     -2.94E+06

   Sub Species                    Mass Fraction     Mole Fraction
   NITROGEN                       7.026583E-01      7.197139E-01
   CARBON DIOXIDE                 2.135546E-01      1.392336E-01
   CARBON MONOXIDE                0.000000E+00      0.000000E+00
   WATER VAPOR                    7.645708E-02      1.217750E-01
   SOOT                           7.330093E-03      1.927744E-02
 
     Viscosity (kg/m/s) Ambient,  293 K:  1.62E-05
                                  500 K:  2.40E-05
                                 1000 K:  3.89E-05
                                 1500 K:  5.12E-05
   Therm. Cond. (W/m/K) Ambient,  293 K:  2.32E-02
                                  500 K:  3.61E-02
                                 1000 K:  6.68E-02
                                 1500 K:  9.51E-02
        Enthalpy (J/kg) Ambient,  293 K: -2.94E+06
                                  500 K: -2.72E+06
                                 1000 K: -2.12E+06
                                 1500 K: -1.45E+06
    Spec. Heat (J/kg/K) Ambient,  293 K:  1.06E+03
                                  500 K:  1.12E+03
                                 1000 K:  1.27E+03
                                 1500 K:  1.37E+03
   Diff. Coeff. (m^2/s) Ambient,  293 K:  1.95E-05
                                  500 K:  4.92E-05
                                 1000 K:  1.58E-04
                                 1500 K:  3.11E-04


 Gas Phase Reaction Information

   Mischbrandlast aus:		40% Polyethylen,30% Styropor, 30% Polyurethan

   Reaction ID:  Reaction1

   Fuel                                           Heat of Combustion (kJ/kg)
   REAC_FUEL                                                      25820.0000

   Stoichiometry

   Primitive Species Stoich. Coeff.
   Species ID                                                          Molar
   REAC_FUEL                                                       -1.000000
   NITROGEN                                                         0.015000
   OXYGEN                                                          -1.217862
   CARBON DIOXIDE                                                   0.888947
   WATER VAPOR                                                      0.723830
   SOOT                                                             0.123392

   Tracked (Lumped) Species Stoich. Coeff.
   Species ID                                             Molar         Mass
   AIR                                                -5.867550   -11.278153
   REAC_FUEL                                          -1.000000    -1.000000
   PRODUCTS                                            6.400858    12.278153

   Reaction Kinetics

   Arrhenius Parameters
   Pre-exponential:    Infinite
   Activation Energy:  N/A

   ODE Solver:  EXPLICIT EULER
   Extinction Model:  EXTINCTION 2
   Auto-Ignition Temperature (K):       0.0
   Critical Flame Temperature (K):   1700.2


 Material Information

   1 CONCRETE                                                    
     Stahlbeton C30-C37 WU
     Emissivity                      0.900
     Density (kg/m3)                2400.0
     Specific Heat (kJ/kg/K)      1.00E+00
     Conductivity (W/m/K)          2.10E+00

   2 STEEL                                                       
     Drysdale, Intro to Fire Dynamics - ATF NIST Multi-Floor Validation
     Emissivity                     95.000
     Density (kg/m3)                7850.0
     Specific Heat (kJ/kg/K)      4.60E-01
     Conductivity (W/m/K)          4.58E+01

   3 STEEL03                                                     
     Drysdale, Intro to Fire Dynamics - ATF NIST Multi-Floor Validation
     Emissivity                      0.950
     Density (kg/m3)                7850.0
     Specific Heat (kJ/kg/K)      4.60E-01
     Conductivity (W/m/K)          4.58E+01


 Surface Conditions

   0 INERT (DEFAULT)

   1 ADIABATIC

   2 BETON
     Material List
          1  CONCRETE
     Layer  1
        Thickness   (m):  0.10000
        Density (kg/m3):  2400.00
        CONCRETE, Mass fraction:    1.00
     Total surface density   240.000 kg/m2
     Reaction products considered from the first  0.50 layers.
     Solid Phase Node, Layer, Coordinates(m):
                    0      1       0.0000000
                    1      1       0.0007937
                    2      1       0.0023810
                    3      1       0.0055556
                    4      1       0.0119048
                    5      1       0.0246032
                    6      1       0.0500000
                    7      1       0.0753968
                    8      1       0.0880952
                    9      1       0.0944444
                   10      1       0.0976190
                   11      1       0.0992063
                   12      1       0.1000000
     Exposed Backing

   3 STAHL
     Material List
          1  STEEL
     Layer  1
        Thickness   (m):  0.05000
        Density (kg/m3):  7850.00
        STEEL, Mass fraction:    1.00
     Total surface density   392.500 kg/m2
     Reaction products considered from the first  0.50 layers.
     Solid Phase Node, Layer, Coordinates(m):
                    0      1       0.0000000
                    1      1       0.0022727
                    2      1       0.0068182
                    3      1       0.0159091
                    4      1       0.0340909
                    5      1       0.0431818
                    6      1       0.0477273
                    7      1       0.0500000
     Exposed Backing

   4 CAR_BODY02
     Properties completely fabricated
     Material List
          1  STEEL03
     Layer  1
        Thickness   (m):  0.00120
        Density (kg/m3):  7850.00
        STEEL03, Mass fraction:    1.00
     Total surface density     9.420 kg/m2
     Reaction products considered from the first  0.50 layers.
     Solid Phase Node, Layer, Coordinates(m):
                    0      1       0.0000000
                    1      1       0.0012000
     Exposed Backing

   5 BURNER1_PKW1
     HRR Per Unit Area (kW/m2)       1921.3
     REAC_FUEL Mass Flux (kg/s/m2)   7.44E-02

   6 BURNER2_VAN
     HRR Per Unit Area (kW/m2)       3846.2
     REAC_FUEL Mass Flux (kg/s/m2)   1.49E-01

   7 BURNER3_PKW2
     HRR Per Unit Area (kW/m2)       1921.3
     REAC_FUEL Mass Flux (kg/s/m2)   7.44E-02

   8 BURNER4_PKW3
     HRR Per Unit Area (kW/m2)       1921.3
     REAC_FUEL Mass Flux (kg/s/m2)   7.44E-02

   9 OPEN
     Passive Vent to Atmosphere

  10 MIRROR
     Symmetry Plane

  11 INTERPOLATED

  12 PERIODIC

  13 HVAC

  14 MASSLESS TRACER

  15 DROPLET

  16 EVACUATION_OUTFLOW
     Normal Velocity (m/s)         0.000

  17 MASSLESS TARGET

  18 PERIODIC FLOW ONLY


 Cut-off Density and Temperature

    Minimum Temperature:   -10.0 C
    Maximum Temperature:  2726.8 C
    Minimum Density:  1.195E-01 kg/m3
    Maximum Density:  2.663E+00 kg/m3


 Device Coordinates

     1 Coords:     38.100000     16.500000      1.500000, Make: null, ID: SZ2_SM_-3/0_2_110, Quantity: ADIABATIC SURFACE TEMPERATURE
     2 Coords:     38.300000     16.700000      1.500000, Make: null, ID: SZ2_SM_-3/0_3_110, Quantity: ADIABATIC SURFACE TEMPERATURE
     3 Coords:     37.900000     16.700000      1.500000, Make: null, ID: SZ2_SM_-3/0_4_110, Quantity: ADIABATIC SURFACE TEMPERATURE
     4 Coords:     38.100000     16.500000      1.700000, Make: null, ID: SZ2_SM_-3/0_2_130, Quantity: ADIABATIC SURFACE TEMPERATURE
     5 Coords:     38.300000     16.700000      1.700000, Make: null, ID: SZ2_SM_-3/0_3_130, Quantity: ADIABATIC SURFACE TEMPERATURE
     6 Coords:     37.900000     16.700000      1.700000, Make: null, ID: SZ2_SM_-3/0_4_130, Quantity: ADIABATIC SURFACE TEMPERATURE
     7 Coords:     38.100000     16.900000      1.900000, Make: null, ID: SZ2_SM_-3/0_1_150, Quantity: ADIABATIC SURFACE TEMPERATURE
     8 Coords:     38.100000     16.500000      1.900000, Make: null, ID: SZ2_SM_-3/0_2_150, Quantity: ADIABATIC SURFACE TEMPERATURE
     9 Coords:     38.300000     16.700000      1.900000, Make: null, ID: SZ2_SM_-3/0_3_150, Quantity: ADIABATIC SURFACE TEMPERATURE
    10 Coords:     37.900000     16.700000      1.900000, Make: null, ID: SZ2_SM_-3/0_4_150, Quantity: ADIABATIC SURFACE TEMPERATURE
    11 Coords:     38.100000     16.900000      2.700000, Make: null, ID: SZ2_SM_-3/0_1_230, Quantity: ADIABATIC SURFACE TEMPERATURE
    12 Coords:     38.300000     16.700000      2.700000, Make: null, ID: SZ2_SM_-3/0_3_230, Quantity: ADIABATIC SURFACE TEMPERATURE
    13 Coords:     37.900000     16.700000      2.700000, Make: null, ID: SZ2_SM_-3/0_4_230, Quantity: ADIABATIC SURFACE TEMPERATURE
    14 Coords:     38.100000     16.900000      3.300000, Make: null, ID: SZ2_SM_-3/0_1_290, Quantity: ADIABATIC SURFACE TEMPERATURE
    15 Coords:     38.100000     16.500000      3.300000, Make: null, ID: SZ2_SM_-3/0_2_290, Quantity: ADIABATIC SURFACE TEMPERATURE
    16 Coords:     38.100000     16.900000      3.500000, Make: null, ID: SZ2_SM_-3/0_1_310, Quantity: ADIABATIC SURFACE TEMPERATURE
    17 Coords:     38.100000     16.500000      3.500000, Make: null, ID: SZ2_SM_-3/0_2_310, Quantity: ADIABATIC SURFACE TEMPERATURE
    18 Coords:     38.100000     16.900000      3.700000, Make: null, ID: SZ2_SM_-3/0_1_330, Quantity: ADIABATIC SURFACE TEMPERATURE
    19 Coords:     38.100000     16.500000      3.700000, Make: null, ID: SZ2_SM_-3/0_2_330, Quantity: ADIABATIC SURFACE TEMPERATURE
    20 Coords:     38.100000     16.500000      4.300000, Make: null, ID: SZ2_SM_-3/0_2_390, Quantity: ADIABATIC SURFACE TEMPERATURE
    21 Coords:     40.700000     16.500000      1.500000, Make: null, ID: SZ2_SM_-2/0_2_110, Quantity: ADIABATIC SURFACE TEMPERATURE
    22 Coords:     40.900000     16.700000      1.500000, Make: null, ID: SZ2_SM_-2/0_3_110, Quantity: ADIABATIC SURFACE TEMPERATURE
    23 Coords:     40.500000     16.700000      1.500000, Make: null, ID: SZ2_SM_-2/0_4_110, Quantity: ADIABATIC SURFACE TEMPERATURE
    24 Coords:     40.700000     16.500000      1.700000, Make: null, ID: SZ2_SM_-2/0_2_130, Quantity: ADIABATIC SURFACE TEMPERATURE
    25 Coords:     40.900000     16.700000      1.700000, Make: null, ID: SZ2_SM_-2/0_3_130, Quantity: ADIABATIC SURFACE TEMPERATURE
    26 Coords:     40.500000     16.700000      1.700000, Make: null, ID: SZ2_SM_-2/0_4_130, Quantity: ADIABATIC SURFACE TEMPERATURE
    27 Coords:     40.700000     16.900000      1.900000, Make: null, ID: SZ2_SM_-2/0_1_150, Quantity: ADIABATIC SURFACE TEMPERATURE
    28 Coords:     40.700000     16.500000      1.900000, Make: null, ID: SZ2_SM_-2/0_2_150, Quantity: ADIABATIC SURFACE TEMPERATURE
    29 Coords:     40.900000     16.700000      1.900000, Make: null, ID: SZ2_SM_-2/0_3_150, Quantity: ADIABATIC SURFACE TEMPERATURE
    30 Coords:     40.500000     16.700000      1.900000, Make: null, ID: SZ2_SM_-2/0_4_150, Quantity: ADIABATIC SURFACE TEMPERATURE
    31 Coords:     40.700000     16.900000      2.700000, Make: null, ID: SZ2_SM_-2/0_1_230, Quantity: ADIABATIC SURFACE TEMPERATURE
    32 Coords:     40.900000     16.700000      2.700000, Make: null, ID: SZ2_SM_-2/0_3_230, Quantity: ADIABATIC SURFACE TEMPERATURE
    33 Coords:     40.500000     16.700000      2.700000, Make: null, ID: SZ2_SM_-2/0_4_230, Quantity: ADIABATIC SURFACE TEMPERATURE
    34 Coords:     40.700000     16.900000      3.300000, Make: null, ID: SZ2_SM_-2/0_1_290, Quantity: ADIABATIC SURFACE TEMPERATURE
    35 Coords:     40.700000     16.500000      3.300000, Make: null, ID: SZ2_SM_-2/0_2_290, Quantity: ADIABATIC SURFACE TEMPERATURE
    36 Coords:     40.700000     16.900000      3.500000, Make: null, ID: SZ2_SM_-2/0_1_310, Quantity: ADIABATIC SURFACE TEMPERATURE
    37 Coords:     40.700000     16.500000      3.500000, Make: null, ID: SZ2_SM_-2/0_2_310, Quantity: ADIABATIC SURFACE TEMPERATURE
    38 Coords:     40.700000     16.900000      3.700000, Make: null, ID: SZ2_SM_-2/0_1_330, Quantity: ADIABATIC SURFACE TEMPERATURE
    39 Coords:     40.700000     16.500000      3.700000, Make: null, ID: SZ2_SM_-2/0_2_330, Quantity: ADIABATIC SURFACE TEMPERATURE
    40 Coords:     40.700000     16.500000      4.300000, Make: null, ID: SZ2_SM_-2/0_2_390, Quantity: ADIABATIC SURFACE TEMPERATURE
    41 Coords:     43.100000     16.500000      1.500000, Make: null, ID: SZ2_SM_-1/0_2_110, Quantity: ADIABATIC SURFACE TEMPERATURE
    42 Coords:     42.900000     16.700000      1.500000, Make: null, ID: SZ2_SM_-1/0_4_110, Quantity: ADIABATIC SURFACE TEMPERATURE
    43 Coords:     43.300000     16.700000      1.500000, Make: null, ID: SZ2_SM_-1/0_3_110, Quantity: ADIABATIC SURFACE TEMPERATURE
    44 Coords:     43.100000     16.500000      1.700000, Make: null, ID: SZ2_SM_-1/0_2_130, Quantity: ADIABATIC SURFACE TEMPERATURE
    45 Coords:     43.300000     16.700000      1.700000, Make: null, ID: SZ2_SM_-1/0_3_130, Quantity: ADIABATIC SURFACE TEMPERATURE
    46 Coords:     42.900000     16.700000      1.700000, Make: null, ID: SZ2_SM_-1/0_4_130, Quantity: ADIABATIC SURFACE TEMPERATURE
    47 Coords:     43.100000     16.900000      1.900000, Make: null, ID: SZ2_SM_-1/0_1_150, Quantity: ADIABATIC SURFACE TEMPERATURE
    48 Coords:     43.100000     16.500000      1.900000, Make: null, ID: SZ2_SM_-1/0_2_150, Quantity: ADIABATIC SURFACE TEMPERATURE
    49 Coords:     43.300000     16.700000      1.900000, Make: null, ID: SZ2_SM_-1/0_3_150, Quantity: ADIABATIC SURFACE TEMPERATURE
    50 Coords:     42.900000     16.700000      1.900000, Make: null, ID: SZ2_SM_-1/0_4_150, Quantity: ADIABATIC SURFACE TEMPERATURE
    51 Coords:     43.100000     16.900000      2.700000, Make: null, ID: SZ2_SM_-1/0_1_230, Quantity: ADIABATIC SURFACE TEMPERATURE
    52 Coords:     43.300000     16.700000      2.700000, Make: null, ID: SZ2_SM_-1/0_3_230, Quantity: ADIABATIC SURFACE TEMPERATURE
    53 Coords:     42.900000     16.700000      2.700000, Make: null, ID: SZ2_SM_-1/0_4_230, Quantity: ADIABATIC SURFACE TEMPERATURE
    54 Coords:     43.100000     16.900000      3.300000, Make: null, ID: SZ2_SM_-1/0_1_290, Quantity: ADIABATIC SURFACE TEMPERATURE
    55 Coords:     43.100000     16.500000      3.300000, Make: null, ID: SZ2_SM_-1/0_2_290, Quantity: ADIABATIC SURFACE TEMPERATURE
    56 Coords:     43.100000     16.900000      3.500000, Make: null, ID: SZ2_SM_-1/0_1_310, Quantity: ADIABATIC SURFACE TEMPERATURE
    57 Coords:     43.100000     16.500000      3.500000, Make: null, ID: SZ2_SM_-1/0_2_310, Quantity: ADIABATIC SURFACE TEMPERATURE
    58 Coords:     43.100000     16.900000      3.700000, Make: null, ID: SZ2_SM_-1/0_1_330, Quantity: ADIABATIC SURFACE TEMPERATURE
    59 Coords:     43.100000     16.500000      3.700000, Make: null, ID: SZ2_SM_-1/0_2_330, Quantity: ADIABATIC SURFACE TEMPERATURE
    60 Coords:     43.100000     16.500000      4.300000, Make: null, ID: SZ2_SM_-1/0_2_390, Quantity: ADIABATIC SURFACE TEMPERATURE
    61 Coords:     45.700000     16.500000      1.500000, Make: null, ID: SZ2_SM_1/0_2_110, Quantity: ADIABATIC SURFACE TEMPERATURE
    62 Coords:     45.900000     16.700000      1.500000, Make: null, ID: SZ2_SM_1/0_3_110, Quantity: ADIABATIC SURFACE TEMPERATURE
    63 Coords:     45.500000     16.700000      1.500000, Make: null, ID: SZ2_SM_1/0_4_110, Quantity: ADIABATIC SURFACE TEMPERATURE
    64 Coords:     45.700000     16.500000      1.700000, Make: null, ID: SZ2_SM_1/0_2_130, Quantity: ADIABATIC SURFACE TEMPERATURE
    65 Coords:     45.900000     16.700000      1.700000, Make: null, ID: SZ2_SM_1/0_3_130, Quantity: ADIABATIC SURFACE TEMPERATURE
    66 Coords:     45.500000     16.700000      1.700000, Make: null, ID: SZ2_SM_1/0_4_130, Quantity: ADIABATIC SURFACE TEMPERATURE
    67 Coords:     45.700000     16.900000      1.900000, Make: null, ID: SZ2_SM_1/0_1_150, Quantity: ADIABATIC SURFACE TEMPERATURE
    68 Coords:     45.700000     16.500000      1.900000, Make: null, ID: SZ2_SM_1/0_2_150, Quantity: ADIABATIC SURFACE TEMPERATURE
    69 Coords:     45.900000     16.700000      1.900000, Make: null, ID: SZ2_SM_1/0_3_150, Quantity: ADIABATIC SURFACE TEMPERATURE
    70 Coords:     45.500000     16.700000      1.900000, Make: null, ID: SZ2_SM_1/0_4_150, Quantity: ADIABATIC SURFACE TEMPERATURE
    71 Coords:     45.700000     16.900000      2.700000, Make: null, ID: SZ2_SM_1/0_1_230, Quantity: ADIABATIC SURFACE TEMPERATURE
    72 Coords:     45.900000     16.700000      2.700000, Make: null, ID: SZ2_SM_1/0_3_230, Quantity: ADIABATIC SURFACE TEMPERATURE
    73 Coords:     45.500000     16.700000      2.700000, Make: null, ID: SZ2_SM_1/0_4_230, Quantity: ADIABATIC SURFACE TEMPERATURE
    74 Coords:     45.700000     16.900000      3.300000, Make: null, ID: SZ2_SM_1/0_1_290, Quantity: ADIABATIC SURFACE TEMPERATURE
    75 Coords:     45.700000     16.500000      3.300000, Make: null, ID: SZ2_SM_1/0_2_290, Quantity: ADIABATIC SURFACE TEMPERATURE
    76 Coords:     45.700000     16.900000      3.500000, Make: null, ID: SZ2_SM_1/0_1_310, Quantity: ADIABATIC SURFACE TEMPERATURE
    77 Coords:     45.700000     16.500000      3.500000, Make: null, ID: SZ2_SM_1/0_2_310, Quantity: ADIABATIC SURFACE TEMPERATURE
    78 Coords:     45.700000     16.900000      3.700000, Make: null, ID: SZ2_SM_1/0_1_330, Quantity: ADIABATIC SURFACE TEMPERATURE
    79 Coords:     45.700000     16.500000      3.700000, Make: null, ID: SZ2_SM_1/0_2_330, Quantity: ADIABATIC SURFACE TEMPERATURE
    80 Coords:     45.700000     16.500000      4.300000, Make: null, ID: SZ2_SM_1/0_2_390, Quantity: ADIABATIC SURFACE TEMPERATURE
    81 Coords:     48.100000     16.500000      1.500000, Make: null, ID: SZ2_SM_2/0_2_110, Quantity: ADIABATIC SURFACE TEMPERATURE
    82 Coords:     48.300000     16.700000      1.500000, Make: null, ID: SZ2_SM_2/0_3_110, Quantity: ADIABATIC SURFACE TEMPERATURE
    83 Coords:     47.900000     16.700000      1.500000, Make: null, ID: SZ2_SM_2/0_4_110, Quantity: ADIABATIC SURFACE TEMPERATURE
    84 Coords:     48.100000     16.500000      1.700000, Make: null, ID: SZ2_SM_2/0_2_130, Quantity: ADIABATIC SURFACE TEMPERATURE
    85 Coords:     48.300000     16.700000      1.700000, Make: null, ID: SZ2_SM_2/0_3_130, Quantity: ADIABATIC SURFACE TEMPERATURE
    86 Coords:     47.900000     16.700000      1.700000, Make: null, ID: SZ2_SM_2/0_4_130, Quantity: ADIABATIC SURFACE TEMPERATURE
    87 Coords:     48.100000     16.900000      1.900000, Make: null, ID: SZ2_SM_2/0_1_150, Quantity: ADIABATIC SURFACE TEMPERATURE
    88 Coords:     48.100000     16.500000      1.900000, Make: null, ID: SZ2_SM_2/0_2_150, Quantity: ADIABATIC SURFACE TEMPERATURE
    89 Coords:     48.300000     16.700000      1.900000, Make: null, ID: SZ2_SM_2/0_3_150, Quantity: ADIABATIC SURFACE TEMPERATURE
    90 Coords:     47.900000     16.700000      1.900000, Make: null, ID: SZ2_SM_2/0_4_150, Quantity: ADIABATIC SURFACE TEMPERATURE
    91 Coords:     48.100000     16.900000      2.700000, Make: null, ID: SZ2_SM_2/0_1_230, Quantity: ADIABATIC SURFACE TEMPERATURE
    92 Coords:     48.300000     16.700000      2.700000, Make: null, ID: SZ2_SM_2/0_3_230, Quantity: ADIABATIC SURFACE TEMPERATURE
    93 Coords:     47.900000     16.700000      2.700000, Make: null, ID: SZ2_SM_2/0_4_230, Quantity: ADIABATIC SURFACE TEMPERATURE
    94 Coords:     48.100000     16.900000      3.300000, Make: null, ID: SZ2_SM_2/0_1_290, Quantity: ADIABATIC SURFACE TEMPERATURE
    95 Coords:     48.100000     16.500000      3.300000, Make: null, ID: SZ2_SM_2/0_2_290, Quantity: ADIABATIC SURFACE TEMPERATURE
    96 Coords:     48.100000     16.900000      3.500000, Make: null, ID: SZ2_SM_2/0_1_310, Quantity: ADIABATIC SURFACE TEMPERATURE
    97 Coords:     48.100000     16.500000      3.500000, Make: null, ID: SZ2_SM_2/0_2_310, Quantity: ADIABATIC SURFACE TEMPERATURE
    98 Coords:     48.100000     16.900000      3.700000, Make: null, ID: SZ2_SM_2/0_1_330, Quantity: ADIABATIC SURFACE TEMPERATURE
    99 Coords:     48.100000     16.500000      3.700000, Make: null, ID: SZ2_SM_2/0_2_330, Quantity: ADIABATIC SURFACE TEMPERATURE
   100 Coords:     48.100000     16.500000      4.300000, Make: null, ID: SZ2_SM_2/0_2_390, Quantity: ADIABATIC SURFACE TEMPERATURE
   101 Coords:     50.700000     16.500000      1.500000, Make: null, ID: SZ2_SM_3/0_2_110, Quantity: ADIABATIC SURFACE TEMPERATURE
   102 Coords:     50.900000     16.700000      1.500000, Make: null, ID: SZ2_SM_3/0_3_110, Quantity: ADIABATIC SURFACE TEMPERATURE
   103 Coords:     50.500000     16.700000      1.500000, Make: null, ID: SZ2_SM_3/0_4_110, Quantity: ADIABATIC SURFACE TEMPERATURE
   104 Coords:     50.700000     16.500000      1.700000, Make: null, ID: SZ2_SM_3/0_2_130, Quantity: ADIABATIC SURFACE TEMPERATURE
   105 Coords:     50.900000     16.700000      1.700000, Make: null, ID: SZ2_SM_3/0_3_130, Quantity: ADIABATIC SURFACE TEMPERATURE
   106 Coords:     50.500000     16.700000      1.700000, Make: null, ID: SZ2_SM_3/0_4_130, Quantity: ADIABATIC SURFACE TEMPERATURE
   107 Coords:     50.700000     16.900000      1.900000, Make: null, ID: SZ2_SM_3/0_1_150, Quantity: ADIABATIC SURFACE TEMPERATURE
   108 Coords:     50.700000     16.500000      1.900000, Make: null, ID: SZ2_SM_3/0_2_150, Quantity: ADIABATIC SURFACE TEMPERATURE
   109 Coords:     50.900000     16.700000      1.900000, Make: null, ID: SZ2_SM_3/0_3_150, Quantity: ADIABATIC SURFACE TEMPERATURE
   110 Coords:     50.500000     16.700000      1.900000, Make: null, ID: SZ2_SM_3/0_4_150, Quantity: ADIABATIC SURFACE TEMPERATURE
   111 Coords:     50.700000     16.900000      2.700000, Make: null, ID: SZ2_SM_3/0_1_230, Quantity: ADIABATIC SURFACE TEMPERATURE
   112 Coords:     50.900000     16.700000      2.700000, Make: null, ID: SZ2_SM_3/0_3_230, Quantity: ADIABATIC SURFACE TEMPERATURE
   113 Coords:     50.500000     16.700000      2.700000, Make: null, ID: SZ2_SM_3/0_4_230, Quantity: ADIABATIC SURFACE TEMPERATURE
   114 Coords:     50.700000     16.900000      3.300000, Make: null, ID: SZ2_SM_3/0_1_290, Quantity: ADIABATIC SURFACE TEMPERATURE
   115 Coords:     50.700000     16.500000      3.300000, Make: null, ID: SZ2_SM_3/0_2_290, Quantity: ADIABATIC SURFACE TEMPERATURE
   116 Coords:     50.700000     16.900000      3.500000, Make: null, ID: SZ2_SM_3/0_1_310, Quantity: ADIABATIC SURFACE TEMPERATURE
   117 Coords:     50.700000     16.500000      3.500000, Make: null, ID: SZ2_SM_3/0_2_310, Quantity: ADIABATIC SURFACE TEMPERATURE
   118 Coords:     50.700000     16.900000      3.700000, Make: null, ID: SZ2_SM_3/0_1_330, Quantity: ADIABATIC SURFACE TEMPERATURE
   119 Coords:     50.700000     16.500000      3.700000, Make: null, ID: SZ2_SM_3/0_2_330, Quantity: ADIABATIC SURFACE TEMPERATURE
   120 Coords:     50.700000     16.500000      4.300000, Make: null, ID: SZ2_SM_3/0_2_390, Quantity: ADIABATIC SURFACE TEMPERATURE
   121 Coords:     38.100000     17.900000      3.900000, Make: null, ID: SZ2_DT_-3/1.20_01, Quantity: ADIABATIC SURFACE TEMPERATURE
   122 Coords:     38.100000     18.300000      3.900000, Make: null, ID: SZ2_DT_-3/1.60_01, Quantity: ADIABATIC SURFACE TEMPERATURE
   123 Coords:     38.100000     18.700000      3.900000, Make: null, ID: SZ2_DT_-3/2.00_01, Quantity: ADIABATIC SURFACE TEMPERATURE
   124 Coords:     38.100000     19.100000      3.900000, Make: null, ID: SZ2_DT_-3/2.40_01, Quantity: ADIABATIC SURFACE TEMPERATURE
   125 Coords:     38.100000     19.500000      3.900000, Make: null, ID: SZ2_DT_-3/2.80_01, Quantity: ADIABATIC SURFACE TEMPERATURE
   126 Coords:     38.100000     19.900000      3.900000, Make: null, ID: SZ2_DT_-3/3.20_01, Quantity: ADIABATIC SURFACE TEMPERATURE
   127 Coords:     38.100000     20.300000      3.900000, Make: null, ID: SZ2_DT_-3/3.60_01, Quantity: ADIABATIC SURFACE TEMPERATURE
   128 Coords:     38.100000     20.700000      3.900000, Make: null, ID: SZ2_DT_-3/4.00_01, Quantity: ADIABATIC SURFACE TEMPERATURE
   129 Coords:     38.100000     21.700000      3.900000, Make: null, ID: SZ2_DT_-3/5.00_01, Quantity: ADIABATIC SURFACE TEMPERATURE
   130 Coords:     38.100000     24.900000      3.900000, Make: null, ID: SZ2_DT_-3/8.20_01, Quantity: ADIABATIC SURFACE TEMPERATURE
   131 Coords:     38.100000     15.500000      2.500000, Make: null, ID: SZ2_DT_-3/-1.20_01, Quantity: ADIABATIC SURFACE TEMPERATURE
   132 Coords:     38.100000     15.100000      2.500000, Make: null, ID: SZ2_DT_-3/-1.60_01, Quantity: ADIABATIC SURFACE TEMPERATURE
   133 Coords:     38.100000     14.700000      2.500000, Make: null, ID: SZ2_DT_-3/-2.00_01, Quantity: ADIABATIC SURFACE TEMPERATURE
   134 Coords:     38.100000     14.300000      2.500000, Make: null, ID: SZ2_DT_-3/-2.40_01, Quantity: ADIABATIC SURFACE TEMPERATURE
   135 Coords:     38.100000     13.900000      2.500000, Make: null, ID: SZ2_DT_-3/-2.80_01, Quantity: ADIABATIC SURFACE TEMPERATURE
   136 Coords:     38.100000     13.500000      2.500000, Make: null, ID: SZ2_DT_-3/-3.20_01, Quantity: ADIABATIC SURFACE TEMPERATURE
   137 Coords:     38.100000     13.100000      2.500000, Make: null, ID: SZ2_DT_-3/-3.60_01, Quantity: ADIABATIC SURFACE TEMPERATURE
   138 Coords:     38.100000     12.700000      2.500000, Make: null, ID: SZ2_DT_-3/-4.00_01, Quantity: ADIABATIC SURFACE TEMPERATURE
   139 Coords:     38.100000     11.700000      2.500000, Make: null, ID: SZ2_DT_-3/-5.00_01, Quantity: ADIABATIC SURFACE TEMPERATURE
   140 Coords:     38.100000      8.500000      2.500000, Make: null, ID: SZ2_DT_-3/-8.20_01, Quantity: ADIABATIC SURFACE TEMPERATURE
   141 Coords:     40.700000     17.900000      3.900000, Make: null, ID: SZ2_DT_-2/1.20_1, Quantity: ADIABATIC SURFACE TEMPERATURE
   142 Coords:     40.700000     18.300000      3.900000, Make: null, ID: SZ2_DT_-2/1.60_1, Quantity: ADIABATIC SURFACE TEMPERATURE
   143 Coords:     40.700000     18.700000      3.900000, Make: null, ID: SZ2_DT_-2/2.00_1, Quantity: ADIABATIC SURFACE TEMPERATURE
   144 Coords:     40.700000     19.100000      3.900000, Make: null, ID: SZ2_DT_-2/2.40_1, Quantity: ADIABATIC SURFACE TEMPERATURE
   145 Coords:     40.700000     19.500000      3.900000, Make: null, ID: SZ2_DT_-2/2.80_1, Quantity: ADIABATIC SURFACE TEMPERATURE
   146 Coords:     40.700000     19.900000      3.900000, Make: null, ID: SZ2_DT_-2/3.20_1, Quantity: ADIABATIC SURFACE TEMPERATURE
   147 Coords:     40.700000     20.300000      3.900000, Make: null, ID: SZ2_DT_-2/3.60_1, Quantity: ADIABATIC SURFACE TEMPERATURE
   148 Coords:     40.700000     20.700000      3.900000, Make: null, ID: SZ2_DT_-2/4.00_1, Quantity: ADIABATIC SURFACE TEMPERATURE
   149 Coords:     40.700000     21.700000      3.900000, Make: null, ID: SZ2_DT_-2/5.00_1, Quantity: ADIABATIC SURFACE TEMPERATURE
   150 Coords:     40.700000     24.900000      3.900000, Make: null, ID: SZ2_DT_-2/8.20_1, Quantity: ADIABATIC SURFACE TEMPERATURE
   151 Coords:     40.700000     15.500000      2.500000, Make: null, ID: SZ2_DT_-2/-1.20_1, Quantity: ADIABATIC SURFACE TEMPERATURE
   152 Coords:     40.700000     15.100000      2.500000, Make: null, ID: SZ2_DT_-2/-1.60_1, Quantity: ADIABATIC SURFACE TEMPERATURE
   153 Coords:     40.700000     14.700000      2.500000, Make: null, ID: SZ2_DT_-2/-2.00_1, Quantity: ADIABATIC SURFACE TEMPERATURE
   154 Coords:     40.700000     14.300000      2.500000, Make: null, ID: SZ2_DT_-2/-2.40_1, Quantity: ADIABATIC SURFACE TEMPERATURE
   155 Coords:     40.700000     13.900000      2.500000, Make: null, ID: SZ2_DT_-2/-2.80_1, Quantity: ADIABATIC SURFACE TEMPERATURE
   156 Coords:     40.700000     13.500000      2.500000, Make: null, ID: SZ2_DT_-2/-3.20_1, Quantity: ADIABATIC SURFACE TEMPERATURE
   157 Coords:     40.700000     13.100000      2.500000, Make: null, ID: SZ2_DT_-2/-3.60_1, Quantity: ADIABATIC SURFACE TEMPERATURE
   158 Coords:     40.700000     12.700000      2.500000, Make: null, ID: SZ2_DT_-2/-4.00_1, Quantity: ADIABATIC SURFACE TEMPERATURE
   159 Coords:     40.700000     11.700000      2.500000, Make: null, ID: SZ2_DT_-2/-5.00_1, Quantity: ADIABATIC SURFACE TEMPERATURE
   160 Coords:     40.700000      8.500000      2.500000, Make: null, ID: SZ2_DT_-2/-8.20_1, Quantity: ADIABATIC SURFACE TEMPERATURE
   161 Coords:     43.100000     17.900000      3.900000, Make: null, ID: SZ2_DT_-1/1.20_1, Quantity: ADIABATIC SURFACE TEMPERATURE
   162 Coords:     43.100000     18.300000      3.900000, Make: null, ID: SZ2_DT_-1/1.60_1, Quantity: ADIABATIC SURFACE TEMPERATURE
   163 Coords:     43.100000     18.700000      3.900000, Make: null, ID: SZ2_DT_-1/2.00_1, Quantity: ADIABATIC SURFACE TEMPERATURE
   164 Coords:     43.100000     19.500000      3.900000, Make: null, ID: SZ2_DT_-1/2.80_1, Quantity: ADIABATIC SURFACE TEMPERATURE
   165 Coords:     43.100000     19.900000      3.900000, Make: null, ID: SZ2_DT_-1/3.20_1, Quantity: ADIABATIC SURFACE TEMPERATURE
   166 Coords:     43.100000     19.100000      3.900000, Make: null, ID: SZ2_DT_-1/2.40_1, Quantity: ADIABATIC SURFACE TEMPERATURE
   167 Coords:     43.100000     20.300000      3.900000, Make: null, ID: SZ2_DT_-1/3.60_1, Quantity: ADIABATIC SURFACE TEMPERATURE
   168 Coords:     43.100000     20.700000      3.900000, Make: null, ID: SZ2_DT_-1/4.00_1, Quantity: ADIABATIC SURFACE TEMPERATURE
   169 Coords:     43.100000     21.700000      3.900000, Make: null, ID: SZ2_DT_-1/5.00_1, Quantity: ADIABATIC SURFACE TEMPERATURE
   170 Coords:     43.100000     24.900000      3.900000, Make: null, ID: SZ2_DT_-1/8.20_1, Quantity: ADIABATIC SURFACE TEMPERATURE
   171 Coords:     43.100000     15.500000      2.500000, Make: null, ID: SZ2_DT_-1/-1.20_1, Quantity: ADIABATIC SURFACE TEMPERATURE
   172 Coords:     43.100000     15.100000      2.500000, Make: null, ID: SZ2_DT_-1/-1.60_1, Quantity: ADIABATIC SURFACE TEMPERATURE
   173 Coords:     43.100000     14.700000      2.500000, Make: null, ID: SZ2_DT_-1/-2.00_1, Quantity: ADIABATIC SURFACE TEMPERATURE
   174 Coords:     43.100000     14.300000      2.500000, Make: null, ID: SZ2_DT_-1/-2.40_1, Quantity: ADIABATIC SURFACE TEMPERATURE
   175 Coords:     43.100000     13.900000      2.500000, Make: null, ID: SZ2_DT_-1/-2.80_1, Quantity: ADIABATIC SURFACE TEMPERATURE
   176 Coords:     43.100000     13.500000      2.500000, Make: null, ID: SZ2_DT_-1/-3.20_1, Quantity: ADIABATIC SURFACE TEMPERATURE
   177 Coords:     43.100000     13.100000      2.500000, Make: null, ID: SZ2_DT_-1/-3.60_1, Quantity: ADIABATIC SURFACE TEMPERATURE
   178 Coords:     43.100000     12.700000      2.500000, Make: null, ID: SZ2_DT_-1/-4.00_1, Quantity: ADIABATIC SURFACE TEMPERATURE
   179 Coords:     43.100000     11.700000      2.500000, Make: null, ID: SZ2_DT_-1/-5.00_1, Quantity: ADIABATIC SURFACE TEMPERATURE
   180 Coords:     43.100000      8.500000      2.500000, Make: null, ID: SZ2_DT_-1/-8.20_1, Quantity: ADIABATIC SURFACE TEMPERATURE
   181 Coords:     45.700000     17.900000      3.900000, Make: null, ID: SZ2_DT_1/1.20_1, Quantity: ADIABATIC SURFACE TEMPERATURE
   182 Coords:     45.700000     18.300000      3.900000, Make: null, ID: SZ2_DT_1/1.60_1, Quantity: ADIABATIC SURFACE TEMPERATURE
   183 Coords:     45.700000     18.700000      3.900000, Make: null, ID: SZ2_DT_1/2.00_1, Quantity: ADIABATIC SURFACE TEMPERATURE
   184 Coords:     45.700000     19.100000      3.900000, Make: null, ID: SZ2_DT_1/2.40_1, Quantity: ADIABATIC SURFACE TEMPERATURE
   185 Coords:     45.700000     19.500000      3.900000, Make: null, ID: SZ2_DT_1/2.80_1, Quantity: ADIABATIC SURFACE TEMPERATURE
   186 Coords:     45.700000     19.900000      3.900000, Make: null, ID: SZ2_DT_1/3.20_1, Quantity: ADIABATIC SURFACE TEMPERATURE
   187 Coords:     45.700000     20.300000      3.900000, Make: null, ID: SZ2_DT_1/3.60_1, Quantity: ADIABATIC SURFACE TEMPERATURE
   188 Coords:     45.700000     20.700000      3.900000, Make: null, ID: SZ2_DT_1/4.00_1, Quantity: ADIABATIC SURFACE TEMPERATURE
   189 Coords:     45.700000     21.700000      3.900000, Make: null, ID: SZ2_DT_1/5.00_1, Quantity: ADIABATIC SURFACE TEMPERATURE
   190 Coords:     45.700000     24.900000      3.900000, Make: null, ID: SZ2_DT_1/8.20_1, Quantity: ADIABATIC SURFACE TEMPERATURE
   191 Coords:     45.700000     15.500000      2.500000, Make: null, ID: SZ2_DT_1/-1.20_1, Quantity: ADIABATIC SURFACE TEMPERATURE
   192 Coords:     45.700000     15.100000      2.500000, Make: null, ID: SZ2_DT_1/-1.60_1, Quantity: ADIABATIC SURFACE TEMPERATURE
   193 Coords:     45.700000     14.700000      2.500000, Make: null, ID: SZ2_DT_1/-2.00_1, Quantity: ADIABATIC SURFACE TEMPERATURE
   194 Coords:     45.700000     14.300000      2.500000, Make: null, ID: SZ2_DT_1/-2.40_1, Quantity: ADIABATIC SURFACE TEMPERATURE
   195 Coords:     45.700000     13.900000      2.500000, Make: null, ID: SZ2_DT_1/-2.80_1, Quantity: ADIABATIC SURFACE TEMPERATURE
   196 Coords:     45.700000     13.500000      2.500000, Make: null, ID: SZ2_DT_1/-3.20_1, Quantity: ADIABATIC SURFACE TEMPERATURE
   197 Coords:     45.700000     13.100000      2.500000, Make: null, ID: SZ2_DT_1/-3.60_1, Quantity: ADIABATIC SURFACE TEMPERATURE
   198 Coords:     45.700000     12.700000      2.500000, Make: null, ID: SZ2_DT_1/-4.00_2, Quantity: ADIABATIC SURFACE TEMPERATURE
   199 Coords:     45.700000     11.700000      2.500000, Make: null, ID: SZ2_DT_1/-5.00_1, Quantity: ADIABATIC SURFACE TEMPERATURE
   200 Coords:     45.700000      8.500000      2.500000, Make: null, ID: SZ2_DT_1/-8.20_1, Quantity: ADIABATIC SURFACE TEMPERATURE
   201 Coords:     48.100000     17.900000      3.900000, Make: null, ID: SZ2_DT_2/1.20_1, Quantity: ADIABATIC SURFACE TEMPERATURE
   202 Coords:     48.100000     18.300000      3.900000, Make: null, ID: SZ2_DT_2/1.60_1, Quantity: ADIABATIC SURFACE TEMPERATURE
   203 Coords:     48.100000     18.700000      3.900000, Make: null, ID: SZ2_DT_2/2.00_1, Quantity: ADIABATIC SURFACE TEMPERATURE
   204 Coords:     48.100000     19.100000      3.900000, Make: null, ID: SZ2_DT_2/2.40_1, Quantity: ADIABATIC SURFACE TEMPERATURE
   205 Coords:     48.100000     19.500000      3.900000, Make: null, ID: SZ2_DT_2/2.80_1, Quantity: ADIABATIC SURFACE TEMPERATURE
   206 Coords:     48.100000     19.900000      3.900000, Make: null, ID: SZ2_DT_2/3.20_1, Quantity: ADIABATIC SURFACE TEMPERATURE
   207 Coords:     48.100000     20.300000      3.900000, Make: null, ID: SZ2_DT_2/3.60_1, Quantity: ADIABATIC SURFACE TEMPERATURE
   208 Coords:     48.100000     20.700000      3.900000, Make: null, ID: SZ2_DT_2/4.00_1, Quantity: ADIABATIC SURFACE TEMPERATURE
   209 Coords:     48.100000     21.700000      3.900000, Make: null, ID: SZ2_DT_2/5.00_1, Quantity: ADIABATIC SURFACE TEMPERATURE
   210 Coords:     48.100000     24.900000      3.900000, Make: null, ID: SZ2_DT_2/8.20_1, Quantity: ADIABATIC SURFACE TEMPERATURE
   211 Coords:     48.100000     15.500000      2.500000, Make: null, ID: SZ2_DT_2/-1.20_1, Quantity: ADIABATIC SURFACE TEMPERATURE
   212 Coords:     48.100000     15.100000      2.500000, Make: null, ID: SZ2_DT_2/-1.60_1, Quantity: ADIABATIC SURFACE TEMPERATURE
   213 Coords:     48.100000     14.700000      2.500000, Make: null, ID: SZ2_DT_2/-2.00_1, Quantity: ADIABATIC SURFACE TEMPERATURE
   214 Coords:     48.100000     14.300000      2.500000, Make: null, ID: SZ2_DT_2/-2.40_1, Quantity: ADIABATIC SURFACE TEMPERATURE
   215 Coords:     48.100000     13.900000      2.500000, Make: null, ID: SZ2_DT_2/-2.80_1, Quantity: ADIABATIC SURFACE TEMPERATURE
   216 Coords:     48.100000     13.500000      2.500000, Make: null, ID: SZ2_DT_2/-3.20_1, Quantity: ADIABATIC SURFACE TEMPERATURE
   217 Coords:     48.100000     13.100000      2.500000, Make: null, ID: SZ2_DT_2/-3.60_1, Quantity: ADIABATIC SURFACE TEMPERATURE
   218 Coords:     48.100000     12.700000      2.500000, Make: null, ID: SZ2_DT_2/-4.00_2, Quantity: ADIABATIC SURFACE TEMPERATURE
   219 Coords:     48.100000     11.700000      2.500000, Make: null, ID: SZ2_DT_2/-5.00_1, Quantity: ADIABATIC SURFACE TEMPERATURE
   220 Coords:     48.100000      8.500000      2.500000, Make: null, ID: SZ2_DT_2/-8.20_1, Quantity: ADIABATIC SURFACE TEMPERATURE
   221 Coords:     50.700000     17.900000      3.900000, Make: null, ID: SZ2_DT_3/1.20_1, Quantity: ADIABATIC SURFACE TEMPERATURE
   222 Coords:     50.700000     18.300000      3.900000, Make: null, ID: SZ2_DT_3/1.60_1, Quantity: ADIABATIC SURFACE TEMPERATURE
   223 Coords:     50.700000     18.700000      3.900000, Make: null, ID: SZ2_DT_3/2.00_1, Quantity: ADIABATIC SURFACE TEMPERATURE
   224 Coords:     50.700000     19.100000      3.900000, Make: null, ID: SZ2_DT_3/2.40_1, Quantity: ADIABATIC SURFACE TEMPERATURE
   225 Coords:     50.700000     19.500000      3.900000, Make: null, ID: SZ2_DT_3/2.80_1, Quantity: ADIABATIC SURFACE TEMPERATURE
   226 Coords:     50.700000     19.900000      3.900000, Make: null, ID: SZ2_DT_3/3.20_1, Quantity: ADIABATIC SURFACE TEMPERATURE
   227 Coords:     50.700000     20.300000      3.900000, Make: null, ID: SZ2_DT_3/3.60_1, Quantity: ADIABATIC SURFACE TEMPERATURE
   228 Coords:     50.700000     20.700000      3.900000, Make: null, ID: SZ2_DT_3/4.00_1, Quantity: ADIABATIC SURFACE TEMPERATURE
   229 Coords:     50.700000     21.700000      3.900000, Make: null, ID: SZ2_DT_3/5.00_1, Quantity: ADIABATIC SURFACE TEMPERATURE
   230 Coords:     50.700000     24.900000      3.900000, Make: null, ID: SZ2_DT_3/8.20_1, Quantity: ADIABATIC SURFACE TEMPERATURE
   231 Coords:     50.700000     15.500000      2.500000, Make: null, ID: SZ2_DT_3/-1.20_1, Quantity: ADIABATIC SURFACE TEMPERATURE
   232 Coords:     50.700000     15.100000      2.500000, Make: null, ID: SZ2_DT_3/-1.60_1, Quantity: ADIABATIC SURFACE TEMPERATURE
   233 Coords:     50.700000     14.700000      2.500000, Make: null, ID: SZ2_DT_3/-2.00_1, Quantity: ADIABATIC SURFACE TEMPERATURE
   234 Coords:     50.700000     14.300000      2.500000, Make: null, ID: SZ2_DT_3/-2.40_1, Quantity: ADIABATIC SURFACE TEMPERATURE
   235 Coords:     50.700000     13.900000      2.500000, Make: null, ID: SZ2_DT_3/-2.80_1, Quantity: ADIABATIC SURFACE TEMPERATURE
   236 Coords:     50.700000     13.500000      2.500000, Make: null, ID: SZ2_DT_3/-3.20_1, Quantity: ADIABATIC SURFACE TEMPERATURE
   237 Coords:     50.700000     11.700000      2.500000, Make: null, ID: SZ2_DT_3/-5.00_1, Quantity: ADIABATIC SURFACE TEMPERATURE
   238 Coords:     50.700000      8.500000      2.500000, Make: null, ID: SZ2_DT_3/-8.20_1, Quantity: ADIABATIC SURFACE TEMPERATURE
   239 Coords:     50.700000     13.100000      2.500000, Make: null, ID: SZ2_DT_3/-3.60_1, Quantity: ADIABATIC SURFACE TEMPERATURE
   240 Coords:     50.700000     12.700000      2.500000, Make: null, ID: SZ2_DT_3/-4.00_1, Quantity: ADIABATIC SURFACE TEMPERATURE
   241 Coords:     41.900000     13.700000      1.700000, Make: null, ID: VAN_130, Quantity: TEMPERATURE
   242 Coords:     41.900000     13.700000      2.100000, Make: null, ID: VAN_170, Quantity: TEMPERATURE
   243 Coords:     41.900000     13.700000      2.500000, Make: null, ID: VAN_210, Quantity: TEMPERATURE
   244 Coords:     44.500000     13.700000      1.700000, Make: null, ID: PKW1_130, Quantity: TEMPERATURE
   245 Coords:     44.500000     13.700000      1.900000, Make: null, ID: PKW1_150, Quantity: TEMPERATURE
   246 Coords:     44.500000     13.700000      2.500000, Make: null, ID: PKW1_210, Quantity: TEMPERATURE
   247 Coords:     41.900000     19.700000      3.100000, Make: null, ID: PKW3_130, Quantity: TEMPERATURE
   248 Coords:     41.900000     19.700000      3.300000, Make: null, ID: PKW3_150, Quantity: TEMPERATURE
   249 Coords:     41.900000     19.700000      3.900000, Make: null, ID: PKW3_210, Quantity: TEMPERATURE
   250 Coords:     44.500000     19.700000      3.100000, Make: null, ID: PKW2_130, Quantity: TEMPERATURE
   251 Coords:     44.500000     19.700000      3.300000, Make: null, ID: PKW2_150, Quantity: TEMPERATURE
   252 Coords:     44.500000     19.700000      3.900000, Make: null, ID: PKW2_210, Quantity: TEMPERATURE


 PLOT3D Information

   Sampling Interval (s)              30.0

   1 Quantity: TEMPERATURE
   2 Quantity: U-VELOCITY
   3 Quantity: V-VELOCITY
   4 Quantity: W-VELOCITY
   5 Quantity: VISIBILITY, Species: SOOT


 Slice File Information, Mesh     1

   Sampling Interval (s)             1.000

   1 Nodes:   0 164   0  60  12  12, Quantity: TEMPERATURE
   2 Nodes:   0 164   0  60  20  20, Quantity: TEMPERATURE


 Radiation Model Information

   Number of control angles  104
   Time step increment         3
   Angle increment             5
   Theta band N_phi   Solid angle
     1:        4     0.120
     2:       12     0.114
     3:       16     0.127
     4:       20     0.120
     5:       20     0.120
     6:       16     0.127
     7:       12     0.114
     8:        4     0.120
   Using gray gas absorption.
   Mean beam length  0.100 m
 
 

 Run Time Diagnostics

       Time Step       1   October 13, 2020  14:09:12
       Step Size:    0.112E+00 s, Total Time:       0.11 s
       Pressure Iterations:      1
       Maximum Velocity Error:  0.56E-02 on Mesh   2 at ( 143   0  17)
       Maximum Pressure Error:  0.20E-05 on Mesh   1 at ( 163   7  40)
       ---------------------------------------------------------------
       Mesh    1
       Max CFL number:  0.12E-01 at (  80,  50,  34)
       Max divergence:  0.26E-02 at (   8,  19,  34)
       Min divergence: -0.25E-03 at ( 121,  18,  36)
       Max VN number:   0.84E-02 at (  10,  51,  32)
       Radiation Loss to Boundaries:        48.390 kW
       Mesh    2
       Max CFL number:  0.11E-01 at ( 108,  34,  39)
       Max divergence:  0.45E-02 at (   8,   7,  25)
       Min divergence: -0.14E-02 at (  73,  31,  24)
       Max VN number:   0.84E-02 at ( 109,  48,   2)
       Radiation Loss to Boundaries:        46.694 kW
       Mesh    3
       Max CFL number:  0.11E-01 at (  20,  23,  19)
       Max divergence:  0.26E-02 at (   8,  42,  27)
       Min divergence: -0.25E-03 at (  33,  42,  29)
       Max VN number:   0.85E-02 at ( 118,   2,  34)
       Radiation Loss to Boundaries:        56.673 kW
       Mesh    4
       Max CFL number:  0.11E-01 at (  26,  27,  20)
       Max divergence:  0.26E-02 at ( 160,  19,  34)
       Min divergence: -0.25E-03 at (   9,   1,  34)
       Max VN number:   0.81E-02 at ( 152,  45,  28)
       Radiation Loss to Boundaries:        53.620 kW
       Mesh    5
       Max CFL number:  0.11E-01 at (  40,  26,  29)
       Max divergence:  0.23E-02 at (  48,  32,  20)
       Min divergence: -0.15E-02 at (  71,  31,  24)
       Max VN number:   0.87E-02 at (  68,  18,  33)
       Radiation Loss to Boundaries:        21.829 kW
       Mesh    6
       Max CFL number:  0.11E-01 at (  20,  46,  35)
       Max divergence:  0.27E-02 at (  82,   8,  40)
       Min divergence: -0.14E-02 at (   5,  31,  24)
       Max VN number:   0.87E-02 at (  34,  54,  27)
       Radiation Loss to Boundaries:        17.363 kW
       Mesh    7
       Max CFL number:  0.11E-01 at (  64,  37,  23)
       Max divergence:  0.22E-02 at ( 146,  10,  39)
       Min divergence: -0.25E-03 at (   9,  60,  13)
       Max VN number:   0.85E-02 at (  84,  37,   7)
       Radiation Loss to Boundaries:        57.031 kW
 
       Time Step       2   October 13, 2020  14:09:14
       Step Size:    0.112E+00 s, Total Time:       0.22 s
       Pressure Iterations:      1
       Maximum Velocity Error:  0.26E-02 on Mesh   2 at (  89   0  17)
       Maximum Pressure Error:  0.13E-03 on Mesh   2 at ( 110  31  27)
       ---------------------------------------------------------------
       Mesh    1
       Max CFL number:  0.12E-01 at (  80,  50,  34)
       Max divergence:  0.26E-02 at (   8,  19,  34)
       Min divergence: -0.25E-03 at ( 121,  18,  36)
       Max VN number:   0.84E-02 at ( 157,  12,  21)
       Radiation Loss to Boundaries:        48.379 kW
       Mesh    2
       Max CFL number:  0.12E-01 at ( 108,  34,  38)
       Max divergence:  0.67E-02 at (  71,  32,  22)
       Min divergence: -0.11E-02 at (  59,  31,  24)
       Max VN number:   0.83E-02 at ( 109,  48,   2)
       Radiation Loss to Boundaries:        46.683 kW
       Mesh    3
       Max CFL number:  0.11E-01 at (  63,  53,   4)
       Max divergence:  0.26E-02 at (   8,  42,  27)
       Min divergence: -0.25E-03 at (  33,  42,  29)
       Max VN number:   0.85E-02 at ( 118,   2,  34)
       Radiation Loss to Boundaries:        56.660 kW
       Mesh    4
       Max CFL number:  0.11E-01 at (  26,  27,  20)
       Max divergence:  0.26E-02 at ( 160,  19,  34)
       Min divergence: -0.25E-03 at (   9,   1,  34)
       Max VN number:   0.80E-02 at ( 152,  45,  28)
       Radiation Loss to Boundaries:        53.607 kW
       Mesh    5
       Max CFL number:  0.11E-01 at (  40,  26,  28)
       Max divergence:  0.54E-02 at (  10,  32,  22)
       Min divergence: -0.96E-03 at (  46,  31,  24)
       Max VN number:   0.86E-02 at (  68,  18,  33)
       Radiation Loss to Boundaries:        21.823 kW
       Mesh    6
       Max CFL number:  0.11E-01 at (  20,  46,  35)
       Max divergence:  0.59E-02 at (  20,  32,  21)
       Min divergence: -0.11E-02 at (  18,  31,  24)
       Max VN number:   0.87E-02 at (  34,  54,  27)
       Radiation Loss to Boundaries:        17.359 kW
       Mesh    7
       Max CFL number:  0.11E-01 at (  46,  18,  14)
       Max divergence:  0.22E-02 at ( 160,  20,  39)
       Min divergence: -0.25E-03 at (   9,  60,  13)
       Max VN number:   0.85E-02 at (  84,  37,   7)
       Radiation Loss to Boundaries:        57.018 kW
 
       Time Step       3   October 13, 2020  14:09:17
       Step Size:    0.112E+00 s, Total Time:       0.34 s
       Pressure Iterations:      1
       Maximum Velocity Error:  0.29E-02 on Mesh   2 at (  39  61  24)
       Maximum Pressure Error:  0.20E-03 on Mesh   6 at (  20  32  22)
       ---------------------------------------------------------------
       Mesh    1
       Max CFL number:  0.12E-01 at (  80,  50,  34)
       Max divergence:  0.26E-02 at (   8,  19,  34)
       Min divergence: -0.25E-03 at ( 148,   4,  36)
       Max VN number:   0.84E-02 at ( 157,  12,  21)
       Radiation Loss to Boundaries:        49.220 kW
       Mesh    2
       Max CFL number:  0.11E-01 at ( 108,  34,  38)
       Max divergence:  0.66E-02 at (  71,  32,  22)
       Min divergence: -0.11E-02 at (  59,  31,  24)
       Max VN number:   0.83E-02 at ( 109,  48,   2)
       Radiation Loss to Boundaries:        49.026 kW
       Mesh    3
       Max CFL number:  0.11E-01 at (  63,  53,   4)
       Max divergence:  0.26E-02 at (   8,  42,  27)
       Min divergence: -0.25E-03 at (  33,  42,  29)
       Max VN number:   0.84E-02 at ( 118,   2,  34)
       Radiation Loss to Boundaries:        59.420 kW
       Mesh    4
       Max CFL number:  0.11E-01 at (  26,  27,  20)
       Max divergence:  0.26E-02 at ( 160,  19,  34)
       Min divergence: -0.25E-03 at (  73,   4,  36)
       Max VN number:   0.80E-02 at ( 152,  45,  28)
       Radiation Loss to Boundaries:        55.685 kW
       Mesh    5
       Max CFL number:  0.11E-01 at (  40,  26,  28)
       Max divergence:  0.52E-02 at (  10,  32,  22)
       Min divergence: -0.95E-03 at (  46,  31,  24)
       Max VN number:   0.86E-02 at (  68,  18,  33)
       Radiation Loss to Boundaries:        23.618 kW
       Mesh    6
       Max CFL number:  0.11E-01 at (  20,  46,  35)
       Max divergence:  0.57E-02 at (  20,  32,  21)
       Min divergence: -0.11E-02 at (  18,  31,  24)
       Max VN number:   0.87E-02 at (  34,  54,  27)
       Radiation Loss to Boundaries:        18.682 kW
       Mesh    7
       Max CFL number:  0.11E-01 at (  82,  28,  28)
       Max divergence:  0.22E-02 at ( 160,  20,  39)
       Min divergence: -0.25E-03 at (   9,  60,  27)
       Max VN number:   0.84E-02 at (  84,  37,   7)
       Radiation Loss to Boundaries:        59.049 kW
 
       Time Step       4   October 13, 2020  14:09:19
       Step Size:    0.112E+00 s, Total Time:       0.45 s
       Pressure Iterations:      1
       Maximum Velocity Error:  0.23E-02 on Mesh   5 at (  79  19  17)
       Maximum Pressure Error:  0.38E-03 on Mesh   2 at (  71  32  22)
       ---------------------------------------------------------------
       Mesh    1
       Max CFL number:  0.12E-01 at (  80,  50,  34)
       Max divergence:  0.32E-02 at (   8,  19,  34)
       Min divergence: -0.25E-03 at ( 148,   4,  36)
       Max VN number:   0.84E-02 at ( 157,  12,  21)
       Radiation Loss to Boundaries:        49.209 kW
       Mesh    2
       Max CFL number:  0.11E-01 at ( 108,  34,  39)
       Max divergence:  0.62E-02 at (  71,  32,  22)
       Min divergence: -0.12E-02 at (  59,  32,  21)
       Max VN number:   0.83E-02 at ( 109,  48,   2)
       Radiation Loss to Boundaries:        49.015 kW
       Mesh    3
       Max CFL number:  0.11E-01 at (  63,  53,   4)
       Max divergence:  0.32E-02 at (   8,  42,  27)
       Min divergence: -0.25E-03 at (  33,  42,  29)
       Max VN number:   0.84E-02 at ( 122,   3,   3)
       Radiation Loss to Boundaries:        59.406 kW
       Mesh    4
       Max CFL number:  0.11E-01 at (  26,  27,  20)
       Max divergence:  0.32E-02 at ( 160,  19,  34)
       Min divergence: -0.25E-03 at (  73,   4,  36)
       Max VN number:   0.80E-02 at ( 152,  45,  28)
       Radiation Loss to Boundaries:        55.672 kW
       Mesh    5
       Max CFL number:  0.11E-01 at (  40,  26,  28)
       Max divergence:  0.62E-02 at (  62,  10,   8)
       Min divergence: -0.96E-03 at (  46,  31,  24)
       Max VN number:   0.86E-02 at (  68,  18,  33)
       Total Heat Release Rate:              0.985 kW
       Radiation Loss to Boundaries:        23.612 kW
       Mesh    6
       Max CFL number:  0.11E-01 at (  20,  46,  35)
       Max divergence:  0.46E-02 at (  20,  31,  24)
       Min divergence: -0.11E-02 at (  18,  31,  24)
       Max VN number:   0.86E-02 at (  34,  54,  27)
       Radiation Loss to Boundaries:        18.677 kW
       Mesh    7
       Max CFL number:  0.11E-01 at (  14,   6,   5)
       Max divergence:  0.27E-02 at ( 160,  20,  39)
       Min divergence: -0.25E-03 at (   9,  60,  27)
       Max VN number:   0.84E-02 at (  84,  37,   7)
       Radiation Loss to Boundaries:        59.036 kW
 
       Time Step       5   October 13, 2020  14:09:21
       Step Size:    0.112E+00 s, Total Time:       0.56 s
       Pressure Iterations:      1
       Maximum Velocity Error:  0.16E-02 on Mesh   2 at (  45   0  29)
       Maximum Pressure Error:  0.67E-03 on Mesh   2 at (  71  32  22)
       ---------------------------------------------------------------
       Mesh    1
       Max CFL number:  0.12E-01 at (  80,  50,  35)
       Max divergence:  0.32E-02 at (   8,  19,  34)
       Min divergence: -0.25E-03 at ( 148,   4,  36)
       Max VN number:   0.84E-02 at ( 157,  12,  21)
       Radiation Loss to Boundaries:        49.197 kW
       Mesh    2
       Max CFL number:  0.11E-01 at ( 108,  34,  39)
       Max divergence:  0.62E-02 at (  71,  32,  22)
       Min divergence: -0.12E-02 at (  59,  32,  21)
       Max VN number:   0.83E-02 at ( 109,  48,   2)
       Radiation Loss to Boundaries:        49.003 kW
       Mesh    3
       Max CFL number:  0.11E-01 at (  63,  53,   4)
       Max divergence:  0.32E-02 at (   8,  42,  27)
       Min divergence: -0.25E-03 at (  33,  42,  29)
       Max VN number:   0.84E-02 at ( 122,   3,   3)
       Radiation Loss to Boundaries:        59.393 kW
       Mesh    4
       Max CFL number:  0.11E-01 at (  26,  27,  20)
       Max divergence:  0.32E-02 at ( 160,  19,  34)
       Min divergence: -0.25E-03 at (  73,   4,  36)
       Max VN number:   0.80E-02 at ( 152,  45,  28)
       Radiation Loss to Boundaries:        55.659 kW
       Mesh    5
       Max CFL number:  0.11E-01 at (  40,  26,  28)
       Max divergence:  0.94E-02 at (  62,  10,   8)
       Min divergence: -0.95E-03 at (  46,  31,  24)
       Max VN number:   0.85E-02 at (  68,  18,  33)
       Total Heat Release Rate:              1.813 kW
       Radiation Loss to Boundaries:        23.606 kW
       Mesh    6
       Max CFL number:  0.11E-01 at (  20,  46,  35)
       Max divergence:  0.46E-02 at (  20,  31,  24)
       Min divergence: -0.11E-02 at (  18,  31,  24)
       Max VN number:   0.86E-02 at (  34,  54,  27)
       Radiation Loss to Boundaries:        18.673 kW
       Mesh    7
       Max CFL number:  0.11E-01 at (  46,  18,  14)
       Max divergence:  0.27E-02 at ( 160,  20,  39)
       Min divergence: -0.25E-03 at (   9,  60,  27)
       Max VN number:   0.84E-02 at (  84,  37,   7)
       Radiation Loss to Boundaries:        59.022 kW
 
       Time Step       6   October 13, 2020  14:09:24
       Step Size:    0.112E+00 s, Total Time:       0.67 s
       Pressure Iterations:      1
       Maximum Velocity Error:  0.16E-02 on Mesh   6 at (  34   0  29)
       Maximum Pressure Error:  0.12E-02 on Mesh   5 at (  62  10   8)
       ---------------------------------------------------------------
       Mesh    1
       Max CFL number:  0.12E-01 at (  80,  50,  35)
       Max divergence:  0.36E-02 at (   8,  19,  34)
       Min divergence: -0.25E-03 at ( 111,   4,  22)
       Max VN number:   0.84E-02 at ( 157,  12,  21)
       Radiation Loss to Boundaries:        48.832 kW
       Mesh    2
       Max CFL number:  0.11E-01 at ( 111,  32,  19)
       Max divergence:  0.59E-02 at (  71,  32,  22)
       Min divergence: -0.12E-02 at (  59,  32,  21)
       Max VN number:   0.83E-02 at ( 109,  48,   2)
       Radiation Loss to Boundaries:        48.460 kW
       Mesh    3
       Max CFL number:  0.11E-01 at (  63,  53,   4)
       Max divergence:  0.36E-02 at (   8,  42,  27)
       Min divergence: -0.25E-03 at (  33,  42,  29)
       Max VN number:   0.84E-02 at ( 122,   3,   3)
       Radiation Loss to Boundaries:        59.813 kW
       Mesh    4
       Max CFL number:  0.11E-01 at (  26,  27,  20)
       Max divergence:  0.36E-02 at ( 160,  19,  34)
       Min divergence: -0.24E-03 at (  73,   6,  35)
       Max VN number:   0.80E-02 at ( 152,  45,  28)
       Radiation Loss to Boundaries:        56.371 kW
       Mesh    5
       Max CFL number:  0.11E-01 at (  40,  26,  28)
       Max divergence:  0.11E-01 at (  67,  10,   8)
       Min divergence: -0.97E-03 at (  60,  32,  21)
       Max VN number:   0.85E-02 at (  68,  18,  33)
       Total Heat Release Rate:              2.677 kW
       Radiation Loss to Boundaries:        24.259 kW
       Mesh    6
       Max CFL number:  0.11E-01 at (  20,  46,  35)
       Max divergence:  0.45E-02 at (  20,  31,  24)
       Min divergence: -0.11E-02 at (  18,  31,  24)
       Max VN number:   0.86E-02 at (  34,  54,  27)
       Radiation Loss to Boundaries:        19.425 kW
       Mesh    7
       Max CFL number:  0.11E-01 at (  46,  18,  14)
       Max divergence:  0.31E-02 at ( 160,  20,  39)
       Min divergence: -0.24E-03 at (  71,  57,  15)
       Max VN number:   0.84E-02 at (  84,  37,   7)
       Radiation Loss to Boundaries:        60.116 kW
 
       Time Step       7   October 13, 2020  14:09:26
       Step Size:    0.112E+00 s, Total Time:       0.78 s
       Pressure Iterations:      1
       Maximum Velocity Error:  0.17E-02 on Mesh   4 at ( 145   0  36)
       Maximum Pressure Error:  0.20E-02 on Mesh   5 at (  62  10   8)
       ---------------------------------------------------------------
       Mesh    1
       Max CFL number:  0.12E-01 at (  80,  50,  35)
       Max divergence:  0.36E-02 at (   8,  19,  34)
       Min divergence: -0.25E-03 at ( 111,   4,  22)
       Max VN number:   0.83E-02 at ( 157,  12,  21)
       Radiation Loss to Boundaries:        48.820 kW
       Mesh    2
       Max CFL number:  0.12E-01 at ( 111,  32,  19)
       Max divergence:  0.52E-02 at (   8,   7,  27)
       Min divergence: -0.14E-02 at (  59,  32,  21)
       Max VN number:   0.82E-02 at ( 109,  48,   2)
       Radiation Loss to Boundaries:        48.448 kW
       Mesh    3
       Max CFL number:  0.11E-01 at (  63,  53,   4)
       Max divergence:  0.36E-02 at (   8,  42,  27)
       Min divergence: -0.25E-03 at (  33,  42,  29)
       Max VN number:   0.84E-02 at ( 122,   3,   3)
       Radiation Loss to Boundaries:        59.799 kW
       Mesh    4
       Max CFL number:  0.11E-01 at (  26,  27,  20)
       Max divergence:  0.36E-02 at ( 160,  19,  34)
       Min divergence: -0.24E-03 at (  73,   6,  35)
       Max VN number:   0.80E-02 at ( 152,  45,  28)
       Radiation Loss to Boundaries:        56.358 kW
       Mesh    5
       Max CFL number:  0.11E-01 at (  40,  26,  28)
       Max divergence:  0.13E-01 at (  70,  17,   8)
       Min divergence: -0.14E-02 at (  60,  32,  22)
       Max VN number:   0.85E-02 at (  68,  18,  33)
       Total Heat Release Rate:              3.510 kW
       Radiation Loss to Boundaries:        24.252 kW
       Mesh    6
       Max CFL number:  0.11E-01 at (  20,  46,  35)
       Max divergence:  0.41E-02 at (  20,  31,  24)
       Min divergence: -0.12E-02 at (  31,  32,  21)
       Max VN number:   0.86E-02 at (  34,  54,  27)
       Radiation Loss to Boundaries:        19.421 kW
       Mesh    7
       Max CFL number:  0.11E-01 at (  46,  18,  14)
       Max divergence:  0.31E-02 at ( 160,  20,  39)
       Min divergence: -0.24E-03 at (  71,  57,  15)
       Max VN number:   0.84E-02 at (  84,  37,   7)
       Radiation Loss to Boundaries:        60.102 kW
 
       Time Step       8   October 13, 2020  14:09:28
       Step Size:    0.112E+00 s, Total Time:       0.89 s
       Pressure Iterations:      1
       Maximum Velocity Error:  0.17E-02 on Mesh   4 at ( 145   0  36)
       Maximum Pressure Error:  0.29E-02 on Mesh   5 at (  62  10   8)
       ---------------------------------------------------------------
       Mesh    1
       Max CFL number:  0.12E-01 at (  80,  50,  35)
       Max divergence:  0.39E-02 at (   8,  19,  34)
       Min divergence: -0.25E-03 at ( 111,   4,  22)
       Max VN number:   0.83E-02 at ( 157,  12,  21)
       Radiation Loss to Boundaries:        48.809 kW
       Mesh    2
       Max CFL number:  0.13E-01 at ( 111,  32,  19)
       Max divergence:  0.58E-02 at (   8,   7,  27)
       Min divergence: -0.14E-02 at (  59,  32,  21)
       Max VN number:   0.82E-02 at ( 109,  48,   2)
       Radiation Loss to Boundaries:        48.436 kW
       Mesh    3
       Max CFL number:  0.11E-01 at (  63,  53,   4)
       Max divergence:  0.39E-02 at (   8,  42,  27)
       Min divergence: -0.25E-03 at (  33,  42,  29)
       Max VN number:   0.83E-02 at ( 122,   3,   3)
       Radiation Loss to Boundaries:        59.785 kW
       Mesh    4
       Max CFL number:  0.11E-01 at (  26,  27,  20)
       Max divergence:  0.39E-02 at ( 160,  19,  34)
       Min divergence: -0.24E-03 at (  73,   6,  35)
       Max VN number:   0.80E-02 at ( 152,  45,  28)
       Radiation Loss to Boundaries:        56.345 kW
       Mesh    5
       Max CFL number:  0.11E-01 at (  40,  26,  28)
       Max divergence:  0.16E-01 at (  67,  10,   8)
       Min divergence: -0.14E-02 at (  60,  32,  22)
       Max VN number:   0.84E-02 at (  68,  18,  33)
       Total Heat Release Rate:              4.371 kW
       Radiation Loss to Boundaries:        24.245 kW
       Mesh    6
       Max CFL number:  0.11E-01 at (  20,  46,  35)
       Max divergence:  0.41E-02 at (  20,  31,  24)
       Min divergence: -0.12E-02 at (  31,  32,  21)
       Max VN number:   0.86E-02 at (  34,  54,  27)
       Radiation Loss to Boundaries:        19.416 kW
       Mesh    7
       Max CFL number:  0.11E-01 at (  46,  18,  14)
       Max divergence:  0.33E-02 at ( 160,  20,  39)
       Min divergence: -0.24E-03 at (  71,  57,  15)
       Max VN number:   0.84E-02 at (  84,  37,   7)
       Radiation Loss to Boundaries:        60.088 kW
 
       Time Step       9   October 13, 2020  14:09:30
       Step Size:    0.112E+00 s, Total Time:       1.01 s
       Pressure Iterations:      1
       Maximum Velocity Error:  0.18E-02 on Mesh   4 at ( 136   0  36)
       Maximum Pressure Error:  0.38E-02 on Mesh   5 at (  62  10   8)
       ---------------------------------------------------------------
       Mesh    1
       Max CFL number:  0.12E-01 at (  80,  50,  35)
       Max divergence:  0.38E-02 at (   8,  19,  34)
       Min divergence: -0.25E-03 at (  71,   8,  36)
       Max VN number:   0.83E-02 at ( 157,  12,  21)
       Radiation Loss to Boundaries:        48.588 kW
       Mesh    2
       Max CFL number:  0.15E-01 at (   8,   7,  11)
       Max divergence:  0.58E-02 at (   8,   7,  27)
       Min divergence: -0.13E-02 at (  59,  32,  21)
       Max VN number:   0.82E-02 at ( 109,  48,   2)
       Radiation Loss to Boundaries:        47.360 kW
       Mesh    3
       Max CFL number:  0.11E-01 at (  63,  53,   4)
       Max divergence:  0.38E-02 at (   8,  42,  27)
       Min divergence: -0.25E-03 at (  21,  14,  28)
       Max VN number:   0.83E-02 at ( 122,   3,   3)
       Radiation Loss to Boundaries:        59.980 kW
       Mesh    4
       Max CFL number:  0.11E-01 at (  26,  27,  20)
       Max divergence:  0.38E-02 at ( 160,  19,  34)
       Min divergence: -0.25E-03 at (  60,  12,  36)
       Max VN number:   0.80E-02 at ( 152,  45,  28)
       Radiation Loss to Boundaries:        56.670 kW
       Mesh    5
       Max CFL number:  0.11E-01 at (  40,  26,  28)
       Max divergence:  0.18E-01 at (  69,  17,   8)
       Min divergence: -0.12E-02 at (  60,  32,  22)
       Max VN number:   0.84E-02 at (  68,  18,  33)
       Total Heat Release Rate:              5.101 kW
       Radiation Loss to Boundaries:        24.512 kW
       Mesh    6
       Max CFL number:  0.12E-01 at (   7,  32,  20)
       Max divergence:  0.40E-02 at (  20,  31,  24)
       Min divergence: -0.12E-02 at (  31,  32,  21)
       Max VN number:   0.86E-02 at (  34,  54,  27)
       Radiation Loss to Boundaries:        19.861 kW
       Mesh    7
       Max CFL number:  0.11E-01 at (  21,  14,  26)
       Max divergence:  0.33E-02 at ( 160,  20,  39)
       Min divergence: -0.24E-03 at ( 121,  32,  40)
       Max VN number:   0.84E-02 at (  84,  37,   7)
       Radiation Loss to Boundaries:        61.449 kW
 
       Time Step      10   October 13, 2020  14:09:32
       Step Size:    0.112E+00 s, Total Time:       1.12 s
       Pressure Iterations:      1
       Maximum Velocity Error:  0.18E-02 on Mesh   4 at ( 136   0  36)
       Maximum Pressure Error:  0.48E-02 on Mesh   5 at (  62  10   8)
       ---------------------------------------------------------------
       Mesh    1
       Max CFL number:  0.12E-01 at (  80,  50,  35)
       Max divergence:  0.41E-02 at (   8,  19,  34)
       Min divergence: -0.24E-03 at (  71,   8,  36)
       Max VN number:   0.83E-02 at ( 157,  12,  21)
       Radiation Loss to Boundaries:        48.577 kW
       Mesh    2
       Max CFL number:  0.17E-01 at (   8,   7,  11)
       Max divergence:  0.62E-02 at (   8,   7,  27)
       Min divergence: -0.13E-02 at (  59,  32,  21)
       Max VN number:   0.82E-02 at ( 109,  48,   2)
       Radiation Loss to Boundaries:        47.348 kW
       Mesh    3
       Max CFL number:  0.11E-01 at (  63,  53,   4)
       Max divergence:  0.41E-02 at (   8,  42,  27)
       Min divergence: -0.25E-03 at (  21,  14,  28)
       Max VN number:   0.83E-02 at ( 122,   3,   3)
       Radiation Loss to Boundaries:        59.966 kW
       Mesh    4
       Max CFL number:  0.11E-01 at ( 160,  10,  19)
       Max divergence:  0.41E-02 at ( 160,  19,  34)
       Min divergence: -0.25E-03 at (  60,  12,  36)
       Max VN number:   0.79E-02 at ( 152,  45,  28)
       Radiation Loss to Boundaries:        56.657 kW
       Mesh    5
       Max CFL number:  0.12E-01 at (  35,  32,  19)
       Max divergence:  0.21E-01 at (  69,  11,   8)
       Min divergence: -0.13E-02 at (  46,  32,  22)
       Max VN number:   0.84E-02 at (  68,  18,  33)
       Total Heat Release Rate:              5.859 kW
       Radiation Loss to Boundaries:        24.505 kW
       Mesh    6
       Max CFL number:  0.13E-01 at (   7,  32,  20)
       Max divergence:  0.40E-02 at (  82,   7,  40)
       Min divergence: -0.13E-02 at (  18,  32,  22)
       Max VN number:   0.85E-02 at (  34,  54,  27)
       Radiation Loss to Boundaries:        19.856 kW
       Mesh    7
       Max CFL number:  0.11E-01 at (  21,  14,  26)
       Max divergence:  0.35E-02 at ( 160,  20,  39)
       Min divergence: -0.24E-03 at ( 121,  32,  40)
       Max VN number:   0.84E-02 at (  84,  37,   7)
       Radiation Loss to Boundaries:        61.435 kW
 
       Time Step      20   October 13, 2020  14:09:55
       Step Size:    0.112E+00 s, Total Time:       2.24 s
       Pressure Iterations:      2
       Maximum Velocity Error:  0.13E-01 on Mesh   5 at (  66  15   7)
       Maximum Pressure Error:  0.13E+01 on Mesh   5 at (  66  15   8)
       ---------------------------------------------------------------
       Mesh    1
       Max CFL number:  0.23E-01 at (   8,  19,  20)
       Max divergence:  0.47E-02 at (   8,  19,  34)
       Min divergence: -0.25E-03 at ( 134,   2,  35)
       Max VN number:   0.99E-02 at (  34,  19,  19)
       Radiation Loss to Boundaries:        48.323 kW
       Mesh    2
       Max CFL number:  0.55E-01 at (   8,   7,  11)
       Max divergence:  0.74E-02 at (   8,   7,  40)
       Min divergence: -0.14E-02 at (  71,  32,  22)
       Max VN number:   0.10E-01 at (   7,   7,  13)
       Radiation Loss to Boundaries:        43.213 kW
       Mesh    3
       Max CFL number:  0.19E-01 at (  46,   9,  12)
       Max divergence:  0.47E-02 at (   8,  42,  13)
       Min divergence: -0.25E-03 at (  21,  13,  28)
       Max VN number:   0.91E-02 at (  84,  42,  26)
       Radiation Loss to Boundaries:        58.775 kW
       Mesh    4
       Max CFL number:  0.21E-01 at ( 160,  16,  20)
       Max divergence:  0.47E-02 at ( 160,  19,  20)
       Min divergence: -0.24E-03 at (  60,  10,  36)
       Max VN number:   0.89E-02 at (  84,  19,  33)
       Radiation Loss to Boundaries:        56.541 kW
       Mesh    5
       Max CFL number:  0.31E-01 at (  62,  11,   8)
       Max divergence:  0.50E+00 at (  66,  15,   8)
       Min divergence: -0.13E-02 at (  20,  32,  21)
       Max VN number:   0.14E-01 at (  68,  21,   9)
       Total Heat Release Rate:             66.237 kW
       Radiation Loss to Boundaries:        16.966 kW
       Mesh    6
       Max CFL number:  0.32E-01 at (  20,  32,  20)
       Max divergence:  0.47E-02 at (  82,   7,  40)
       Min divergence: -0.13E-02 at (  20,  32,  22)
       Max VN number:   0.88E-02 at (  82,   9,  12)
       Radiation Loss to Boundaries:        20.480 kW
       Mesh    7
       Max CFL number:  0.20E-01 at ( 160,  33,  39)
       Max divergence:  0.41E-02 at ( 160,  20,  39)
       Min divergence: -0.24E-03 at (  60,  60,  15)
       Max VN number:   0.97E-02 at (  72,  42,  39)
       Radiation Loss to Boundaries:        62.786 kW
 
       Time Step      30   October 13, 2020  14:10:18
       Step Size:    0.112E+00 s, Total Time:       3.35 s
       Pressure Iterations:      1
       Maximum Velocity Error:  0.65E-02 on Mesh   5 at (  68  12   7)
       Maximum Pressure Error:  0.33E+00 on Mesh   5 at (  66  15   8)
       ---------------------------------------------------------------
       Mesh    1
       Max CFL number:  0.43E-01 at (   8,  19,  20)
       Max divergence:  0.49E-02 at (   8,  19,  34)
       Min divergence: -0.24E-03 at ( 161,  14,  22)
       Max VN number:   0.17E-01 at (   8,  19,  19)
       Radiation Loss to Boundaries:        46.386 kW
       Mesh    2
       Max CFL number:  0.11E+00 at (   8,   7,  11)
       Max divergence:  0.75E-02 at (   8,   7,  40)
       Min divergence: -0.13E-02 at (  83,  32,  22)
       Max VN number:   0.32E-01 at (   8,   7,  13)
       Radiation Loss to Boundaries:        43.977 kW
       Mesh    3
       Max CFL number:  0.40E-01 at (   8,  42,  40)
       Max divergence:  0.49E-02 at (   8,  42,  27)
       Min divergence: -0.24E-03 at ( 161,  49,  15)
       Max VN number:   0.17E-01 at (   8,  42,  39)
       Radiation Loss to Boundaries:        55.692 kW
       Mesh    4
       Max CFL number:  0.41E-01 at ( 160,  19,  34)
       Max divergence:  0.49E-02 at ( 160,  19,  34)
       Min divergence: -0.25E-03 at (   8,  11,  22)
       Max VN number:   0.16E-01 at (  84,  19,  33)
       Radiation Loss to Boundaries:        53.206 kW
       Mesh    5
       Max CFL number:  0.16E+00 at (  69,  11,   8)
       Max divergence:  0.15E+00 at (  68,  12,   8)
       Min divergence: -0.14E-01 at (  66,  15,   9)
       Max VN number:   0.56E-01 at (  70,  11,   8)
       Total Heat Release Rate:             18.196 kW
       Radiation Loss to Boundaries:        17.852 kW
       Mesh    6
       Max CFL number:  0.61E-01 at (  20,  32,  20)
       Max divergence:  0.50E-02 at (  82,   7,  40)
       Min divergence: -0.14E-02 at (   5,  32,  22)
       Max VN number:   0.13E-01 at (   7,  33,  20)
       Radiation Loss to Boundaries:        17.936 kW
       Mesh    7
       Max CFL number:  0.41E-01 at ( 160,  33,  39)
       Max divergence:  0.44E-02 at ( 160,  20,  26)
       Min divergence: -0.25E-03 at (   8,  49,  15)
       Max VN number:   0.16E-01 at ( 160,  42,  39)
       Radiation Loss to Boundaries:        58.108 kW
 
       Time Step      40   October 13, 2020  14:10:40
       Step Size:    0.112E+00 s, Total Time:       4.47 s
       Pressure Iterations:      1
       Maximum Velocity Error:  0.11E-01 on Mesh   5 at (  66  16  11)
       Maximum Pressure Error:  0.38E+00 on Mesh   5 at (  66  16  10)
       ---------------------------------------------------------------
       Mesh    1
       Max CFL number:  0.66E-01 at (   8,  19,  20)
       Max divergence:  0.51E-02 at (   8,  19,  20)
       Min divergence: -0.24E-03 at ( 159,   9,  35)
       Max VN number:   0.25E-01 at (   8,  19,  33)
       Radiation Loss to Boundaries:        46.915 kW
       Mesh    2
       Max CFL number:  0.20E+00 at (   8,   7,  13)
       Max divergence:  0.76E-02 at (   8,   7,  40)
       Min divergence: -0.14E-02 at (  83,  32,  21)
       Max VN number:   0.91E-01 at (   8,   7,  27)
       Radiation Loss to Boundaries:        46.247 kW
       Mesh    3
       Max CFL number:  0.66E-01 at (   8,  53,  27)
       Max divergence:  0.50E-02 at (   8,  42,  27)
       Min divergence: -0.24E-03 at (  59,  53,  15)
       Max VN number:   0.25E-01 at (   8,  42,  39)
       Radiation Loss to Boundaries:        56.749 kW
       Mesh    4
       Max CFL number:  0.67E-01 at ( 160,   6,  20)
       Max divergence:  0.50E-02 at ( 160,  19,  34)
       Min divergence: -0.25E-03 at (   8,   2,  35)
       Max VN number:   0.24E-01 at ( 160,  19,  19)
       Radiation Loss to Boundaries:        53.832 kW
       Mesh    5
       Max CFL number:  0.37E+00 at (  66,  16,   9)
       Max divergence:  0.87E-01 at (  69,  11,   8)
[...]
       Total Heat Release Rate:              0.002 kW
       Radiation Loss to Boundaries:        16.404 kW
       Mesh    7
       Max CFL number:  0.61E+00 at (  63,   1,  35)
       Max divergence:  0.26E-01 at (  65,   7,  16)
       Min divergence: -0.41E-01 at (  60,   7,  14)
       Max VN number:   0.29E+00 at (  61,  42,  15)
       Radiation Loss to Boundaries:        55.776 kW
 
       Time Step     900   October 13, 2020  14:44:17
       Step Size:    0.627E-01 s, Total Time:      78.03 s
       Pressure Iterations:      3
       Maximum Velocity Error:  0.66E-02 on Mesh   5 at (  69  17   7)
       Maximum Pressure Error:  0.17E+02 on Mesh   5 at (  70  18   8)
       ---------------------------------------------------------------
       Mesh    1
       Max CFL number:  0.25E+00 at (   6,   5,  35)
       Max divergence:  0.31E-01 at (   8,   6,  34)
       Min divergence: -0.22E-02 at (   7,   6,  36)
       Max VN number:   0.12E+00 at (   8,   6,  34)
       Radiation Loss to Boundaries:        56.574 kW
       Mesh    2
       Max CFL number:  0.28E+00 at (   6,   7,  40)
       Max divergence:  0.29E-01 at (   8,   7,  27)
       Min divergence: -0.40E-02 at (   7,   9,  27)
       Max VN number:   0.14E+00 at (   8,   9,  13)
       Radiation Loss to Boundaries:        43.360 kW
       Mesh    3
       Max CFL number:  0.25E+00 at (   5,  45,  39)
       Max divergence:  0.11E-01 at (   8,  43,  27)
       Min divergence: -0.21E-02 at (   7,  45,  27)
       Max VN number:   0.12E+00 at (   8,  33,  39)
       Radiation Loss to Boundaries:        67.635 kW
       Mesh    4
       Max CFL number:  0.54E+00 at (  69,  60,  39)
       Max divergence:  0.16E-01 at (  50,  19,  22)
       Min divergence: -0.16E-01 at (  60,  56,  21)
       Max VN number:   0.30E+00 at (  62,  19,  22)
       Radiation Loss to Boundaries:        49.333 kW
       Mesh    5
       Max CFL number:  0.88E+00 at (  71,  18,  10)
       Max divergence:  0.31E+01 at (  66,  16,   8)
       Min divergence: -0.69E+00 at (  70,  18,  10)
       Max VN number:   0.75E+00 at (  72,  17,  13)
       Total Heat Release Rate:            465.844 kW
       Radiation Loss to Boundaries:      -124.719 kW
       Mesh    6
       Max CFL number:  0.54E+00 at (   5,  34,  15)
       Max divergence:  0.52E-01 at (   5,  32,  16)
       Min divergence: -0.66E-01 at (   5,  32,  15)
       Max VN number:   0.24E+00 at (   5,  20,  15)
       Total Heat Release Rate:              0.001 kW
       Radiation Loss to Boundaries:        14.318 kW
       Mesh    7
       Max CFL number:  0.59E+00 at (  70,   3,  31)
       Max divergence:  0.29E-01 at (  65,   7,  13)
       Min divergence: -0.50E-01 at (  60,   7,  14)
       Max VN number:   0.30E+00 at (  67,  42,  15)
       Radiation Loss to Boundaries:        54.401 kW
 
       Time Step    1000   October 13, 2020  14:48:17
       Step Size:    0.535E-01 s, Total Time:      84.39 s
       Pressure Iterations:      3
       Maximum Velocity Error:  0.11E-01 on Mesh   5 at (  69  19   7)
       Maximum Pressure Error:  0.28E+02 on Mesh   5 at (  69  19   8)
       ---------------------------------------------------------------
       Mesh    1
       Max CFL number:  0.25E+00 at (   5,   3,  39)
       Max divergence:  0.35E-01 at (   8,   6,  34)
       Min divergence: -0.21E-02 at (   7,   6,  20)
       Max VN number:   0.95E-01 at (  38,  53,  35)
       Radiation Loss to Boundaries:        64.286 kW
       Mesh    2
       Max CFL number:  0.23E+00 at (   6,  52,  40)
       Max divergence:  0.30E-01 at (   8,   7,  13)
       Min divergence: -0.44E-02 at (   7,   9,  27)
       Max VN number:   0.13E+00 at (   8,  57,  20)
       Radiation Loss to Boundaries:        50.886 kW
       Mesh    3
       Max CFL number:  0.23E+00 at (   5,  46,  39)
       Max divergence:  0.11E-01 at (   8,  43,  13)
       Min divergence: -0.29E-02 at (   7,  42,  13)
       Max VN number:   0.11E+00 at (   8,  33,  39)
       Radiation Loss to Boundaries:        71.803 kW
       Mesh    4
       Max CFL number:  0.54E+00 at (  63,  58,  33)
       Max divergence:  0.22E-01 at (  60,  56,  20)
       Min divergence: -0.21E-01 at (  71,  56,  21)
       Max VN number:   0.28E+00 at (  60,  19,  22)
       Radiation Loss to Boundaries:        49.724 kW
       Mesh    5
       Max CFL number:  0.79E+00 at (  72,  17,  13)
       Max divergence:  0.41E+01 at (  67,  14,   8)
       Min divergence: -0.62E+00 at (  69,  22,  10)
       Max VN number:   0.68E+00 at (  72,  17,  13)
       Total Heat Release Rate:            484.288 kW
       Radiation Loss to Boundaries:      -118.689 kW
       Mesh    6
       Max CFL number:  0.51E+00 at (   1,  18,  15)
       Max divergence:  0.47E-01 at (   6,  32,  15)
       Min divergence: -0.88E-01 at (   5,  36,  15)
       Max VN number:   0.26E+00 at (   5,  15,  15)
       Total Heat Release Rate:              0.019 kW
       Radiation Loss to Boundaries:        16.427 kW
       Mesh    7
       Max CFL number:  0.50E+00 at (  62,   1,  36)
       Max divergence:  0.39E-01 at (  70,   7,  13)
       Min divergence: -0.50E-01 at (  71,   7,  14)
       Max VN number:   0.24E+00 at (  62,  42,  15)
       Radiation Loss to Boundaries:        57.594 kW
 
       Time Step    1100   October 13, 2020  14:52:17
       Step Size:    0.647E-01 s, Total Time:      90.82 s
       Pressure Iterations:      3
       Maximum Velocity Error:  0.91E-02 on Mesh   4 at (  61   0  21)
       Maximum Pressure Error:  0.19E+02 on Mesh   5 at (  71  13   8)
       ---------------------------------------------------------------
       Mesh    1
       Max CFL number:  0.30E+00 at (   6,   1,  40)
       Max divergence:  0.25E-01 at (   8,   6,  20)
       Min divergence: -0.26E-02 at (   7,  19,  20)
       Max VN number:   0.14E+00 at ( 163,  53,  35)
       Radiation Loss to Boundaries:        62.473 kW
       Mesh    2
       Max CFL number:  0.33E+00 at (   6,  60,  40)
       Max divergence:  0.37E-01 at (   8,  57,  34)
       Min divergence: -0.43E-02 at (   7,   9,  27)
       Max VN number:   0.18E+00 at (   8,  57,  20)
       Radiation Loss to Boundaries:        53.014 kW
       Mesh    3
       Max CFL number:  0.24E+00 at (   6,  46,  40)
       Max divergence:  0.11E-01 at (   8,  55,  40)
       Min divergence: -0.18E-02 at (   9,  33,  28)
       Max VN number:   0.13E+00 at (  11,   8,  28)
       Radiation Loss to Boundaries:        72.814 kW
       Mesh    4
       Max CFL number:  0.63E+00 at (  59,  60,  37)
       Max divergence:  0.35E-01 at (  64,  54,  22)
       Min divergence: -0.23E-01 at (  61,  55,  21)
       Max VN number:   0.34E+00 at (  60,  19,  22)
       Radiation Loss to Boundaries:        51.126 kW
       Mesh    5
       Max CFL number:  0.84E+00 at (  70,  33,  15)
       Max divergence:  0.23E+01 at (  71,  14,   8)
       Min divergence: -0.82E+00 at (  68,  13,  10)
       Max VN number:   0.71E+00 at (  72,  19,  13)
       Total Heat Release Rate:            559.834 kW
       Radiation Loss to Boundaries:      -141.776 kW
       Mesh    6
       Max CFL number:  0.64E+00 at (   5,  34,  15)
       Max divergence:  0.58E-01 at (   1,  32,  14)
       Min divergence: -0.86E-01 at (   5,  32,  15)
       Max VN number:   0.27E+00 at (   5,  18,  15)
       Radiation Loss to Boundaries:        17.260 kW
       Mesh    7
       Max CFL number:  0.65E+00 at (  64,   2,  40)
       Max divergence:  0.40E-01 at (  67,   7,  13)
       Min divergence: -0.56E-01 at (  71,  60,  13)
       Max VN number:   0.26E+00 at (  63,  42,  15)
       Total Heat Release Rate:              0.004 kW
       Radiation Loss to Boundaries:        59.261 kW
 
       Time Step    1200   October 13, 2020  14:56:20
       Step Size:    0.595E-01 s, Total Time:      96.74 s
       Pressure Iterations:      3
       Maximum Velocity Error:  0.12E-01 on Mesh   5 at (  64  13   7)
       Maximum Pressure Error:  0.34E+02 on Mesh   5 at (  70  19   8)
       ---------------------------------------------------------------
       Mesh    1
       Max CFL number:  0.28E+00 at (   6,   1,  40)
       Max divergence:  0.24E-01 at (   8,   6,  20)
       Min divergence: -0.29E-02 at (   7,   6,  20)
       Max VN number:   0.12E+00 at (  23,  53,  35)
       Radiation Loss to Boundaries:        63.900 kW
       Mesh    2
       Max CFL number:  0.32E+00 at (   6,  59,  40)
       Max divergence:  0.41E-01 at (  22,  52,  20)
       Min divergence: -0.56E-02 at (   7,  57,  20)
       Max VN number:   0.15E+00 at (   8,  57,  34)
       Radiation Loss to Boundaries:        50.070 kW
       Mesh    3
       Max CFL number:  0.22E+00 at (   7,  46,  40)
       Max divergence:  0.11E-01 at (   8,  43,  13)
       Min divergence: -0.21E-02 at (  96,   9,  26)
       Max VN number:   0.12E+00 at (  13,   8,  28)
       Radiation Loss to Boundaries:        72.684 kW
       Mesh    4
       Max CFL number:  0.55E+00 at (  66,  60,  37)
       Max divergence:  0.24E-01 at (  52,  54,  22)
       Min divergence: -0.34E-01 at (  60,  54,  21)
       Max VN number:   0.29E+00 at (  61,  19,  22)
       Radiation Loss to Boundaries:        50.803 kW
       Mesh    5
       Max CFL number:  0.90E+00 at (  68,  22,  10)
       Max divergence:  0.25E+01 at (  65,  10,   8)
       Min divergence: -0.11E+01 at (  68,  23,  10)
       Max VN number:   0.58E+00 at (  72,  20,  13)
       Total Heat Release Rate:            575.041 kW
       Radiation Loss to Boundaries:      -138.373 kW
       Mesh    6
       Max CFL number:  0.54E+00 at (   5,  34,  15)
       Max divergence:  0.43E-01 at (   6,  36,  16)
       Min divergence: -0.68E-01 at (   5,  34,  15)
       Max VN number:   0.24E+00 at (   5,  23,  15)
       Total Heat Release Rate:              0.002 kW
       Radiation Loss to Boundaries:        15.216 kW
       Mesh    7
       Max CFL number:  0.59E+00 at (  68,   3,  31)
       Max divergence:  0.47E-01 at (  68,   7,  16)
       Min divergence: -0.63E-01 at (  71,   7,  14)
       Max VN number:   0.31E+00 at (  63,  42,  15)
       Radiation Loss to Boundaries:        57.539 kW
 
       Time Step    1300   October 13, 2020  15:00:22
       Step Size:    0.552E-01 s, Total Time:     102.52 s
       Pressure Iterations:      3
       Maximum Velocity Error:  0.10E-01 on Mesh   5 at (  64  12   7)
       Maximum Pressure Error:  0.35E+02 on Mesh   5 at (  62  15   8)
       ---------------------------------------------------------------
       Mesh    1
       Max CFL number:  0.30E+00 at ( 162,  58,  36)
       Max divergence:  0.26E-01 at (   8,   6,  20)
       Min divergence: -0.42E-02 at (   7,   6,  20)
       Max VN number:   0.12E+00 at ( 164,  54,  22)
       Radiation Loss to Boundaries:        65.125 kW
       Mesh    2
       Max CFL number:  0.31E+00 at (   6,  59,  40)
       Max divergence:  0.43E-01 at ( 160,  42,  34)
       Min divergence: -0.51E-02 at (  23,  52,  34)
       Max VN number:   0.15E+00 at (   8,  57,  34)
       Radiation Loss to Boundaries:        54.877 kW
       Mesh    3
       Max CFL number:  0.21E+00 at (   6,  47,  40)
       Max divergence:  0.11E-01 at (   8,  43,  13)
       Min divergence: -0.25E-02 at (   7,  42,  13)
       Max VN number:   0.12E+00 at (   8,  42,  27)
       Radiation Loss to Boundaries:        76.996 kW
       Mesh    4
       Max CFL number:  0.56E+00 at (  61,  59,  37)
       Max divergence:  0.44E-01 at (  71,  19,  22)
       Min divergence: -0.31E-01 at (  70,  19,  21)
       Max VN number:   0.33E+00 at (  66,  19,  22)
       Radiation Loss to Boundaries:        51.387 kW
       Mesh    5
       Max CFL number:  0.82E+00 at (  61,  16,  10)
       Max divergence:  0.36E+01 at (  64,  12,   8)
       Min divergence: -0.11E+01 at (  68,  13,   9)
       Max VN number:   0.52E+00 at (  72,  19,  13)
       Total Heat Release Rate:            589.326 kW
       Radiation Loss to Boundaries:      -159.306 kW
       Mesh    6
       Max CFL number:  0.59E+00 at (   5,  35,  15)
       Max divergence:  0.59E-01 at (   6,  34,  14)
       Min divergence: -0.13E+00 at (   5,  33,  14)
       Max VN number:   0.26E+00 at (   6,  37,  20)
       Total Heat Release Rate:              0.002 kW
       Radiation Loss to Boundaries:        15.476 kW
       Mesh    7
       Max CFL number:  0.63E+00 at (  63,   3,  39)
       Max divergence:  0.42E-01 at (  67,   7,  16)
       Min divergence: -0.60E-01 at (  60,   7,  14)
       Max VN number:   0.27E+00 at (  70,  42,  15)
       Radiation Loss to Boundaries:        57.668 kW
 
       Time Step    1400   October 13, 2020  15:04:25
       Step Size:    0.568E-01 s, Total Time:     108.21 s
       Pressure Iterations:      3
       Maximum Velocity Error:  0.18E-01 on Mesh   5 at (  62  13   7)
       Maximum Pressure Error:  0.89E+02 on Mesh   5 at (  62  13   8)
       ---------------------------------------------------------------
       Mesh    1
       Max CFL number:  0.28E+00 at ( 163,  60,  36)
       Max divergence:  0.34E-01 at (   8,  16,  20)
       Min divergence: -0.49E-02 at (   7,   6,  20)
       Max VN number:   0.13E+00 at (  13,  53,  35)
       Radiation Loss to Boundaries:        68.431 kW
       Mesh    2
       Max CFL number:  0.33E+00 at (   5,  58,  40)
       Max divergence:  0.57E-01 at (  22,   7,  27)
       Min divergence: -0.42E-02 at ( 159,  42,  20)
       Max VN number:   0.16E+00 at (   8,  57,  34)
       Radiation Loss to Boundaries:        65.933 kW
       Mesh    3
       Max CFL number:  0.22E+00 at (   5,  46,  40)
       Max divergence:  0.11E-01 at (   8,  22,  39)
       Min divergence: -0.21E-02 at (   7,  53,  27)
       Max VN number:   0.13E+00 at (  11,   8,  28)
       Radiation Loss to Boundaries:        78.892 kW
       Mesh    4
       Max CFL number:  0.66E+00 at (  62,  60,  32)
       Max divergence:  0.29E-01 at (  70,  56,  20)
       Min divergence: -0.26E-01 at (  71,  56,  21)
       Max VN number:   0.34E+00 at (  60,  19,  22)
       Radiation Loss to Boundaries:        48.148 kW
       Mesh    5
       Max CFL number:  0.89E+00 at (  72,  19,  13)
       Max divergence:  0.95E+01 at (  62,  13,   8)
       Min divergence: -0.17E+01 at (  72,  19,  13)
       Max VN number:   0.70E+00 at (  72,  20,  13)
       Total Heat Release Rate:            690.601 kW
       Radiation Loss to Boundaries:      -182.410 kW
       Mesh    6
       Max CFL number:  0.57E+00 at (   5,  34,  15)
       Max divergence:  0.59E-01 at (   4,  36,  17)
       Min divergence: -0.87E-01 at (   5,  34,  15)
       Max VN number:   0.32E+00 at (   6,  38,  20)
       Total Heat Release Rate:              0.010 kW
       Radiation Loss to Boundaries:        18.184 kW
       Mesh    7
       Max CFL number:  0.64E+00 at (  71,   2,  39)
       Max divergence:  0.44E-01 at (  71,   6,  13)
       Min divergence: -0.77E-01 at (  64,  60,  14)
       Max VN number:   0.28E+00 at (  68,  42,  15)
       Radiation Loss to Boundaries:        60.930 kW
 
       Time Step    1500   October 13, 2020  15:08:32
       Step Size:    0.564E-01 s, Total Time:     113.74 s
       Pressure Iterations:      3
       Maximum Velocity Error:  0.13E-01 on Mesh   5 at (  68  13   7)
       Maximum Pressure Error:  0.40E+02 on Mesh   5 at (  63  13   8)
       ---------------------------------------------------------------
       Mesh    1
       Max CFL number:  0.30E+00 at ( 162,  59,  38)
       Max divergence:  0.50E-01 at (   8,  16,  20)
       Min divergence: -0.72E-02 at (   7,  16,  20)
       Max VN number:   0.14E+00 at (  12,  53,  35)
       Radiation Loss to Boundaries:        72.739 kW
       Mesh    2
       Max CFL number:  0.34E+00 at (   5,  59,  40)
       Max divergence:  0.63E-01 at (  22,   7,  27)
       Min divergence: -0.51E-02 at (   7,  57,  20)
       Max VN number:   0.17E+00 at (   8,  57,  20)
       Radiation Loss to Boundaries:        70.607 kW
       Mesh    3
       Max CFL number:  0.23E+00 at (  72,   7,  39)
       Max divergence:  0.12E-01 at (   8,  33,  26)
       Min divergence: -0.28E-02 at (   7,  45,  27)
       Max VN number:   0.13E+00 at (  12,   8,  28)
       Radiation Loss to Boundaries:        87.946 kW
       Mesh    4
       Max CFL number:  0.56E+00 at (  77,  60,  40)
       Max divergence:  0.36E-01 at (  64,  55,  22)
       Min divergence: -0.37E-01 at (  71,  54,  21)
       Max VN number:   0.34E+00 at (  60,  19,  22)
       Radiation Loss to Boundaries:        47.926 kW
       Mesh    5
       Max CFL number:  0.88E+00 at (  61,  14,  10)
       Max divergence:  0.59E+01 at (  66,  17,   8)
       Min divergence: -0.10E+01 at (  69,  22,  10)
       Max VN number:   0.57E+00 at (  72,  18,  13)
       Total Heat Release Rate:            677.190 kW
       Radiation Loss to Boundaries:      -188.528 kW
       Mesh    6
       Max CFL number:  0.61E+00 at (   5,  33,  15)
       Max divergence:  0.83E-01 at (   5,  34,  14)
       Min divergence: -0.11E+00 at (   5,  33,  15)
       Max VN number:   0.28E+00 at (   5,  33,  15)
       Total Heat Release Rate:              0.031 kW
       Radiation Loss to Boundaries:        17.030 kW
       Mesh    7
       Max CFL number:  0.64E+00 at (  65,   2,  35)
       Max divergence:  0.52E-01 at (  69,   7,  13)
       Min divergence: -0.11E+00 at (  61,  42,  14)
       Max VN number:   0.31E+00 at (  60,  42,  15)
       Radiation Loss to Boundaries:        62.139 kW
 
       Time Step    1600   October 13, 2020  15:12:36
       Step Size:    0.524E-01 s, Total Time:     119.06 s
       Pressure Iterations:      3
       Maximum Velocity Error:  0.23E-01 on Mesh   5 at (  70  15   7)
       Maximum Pressure Error:  0.49E+02 on Mesh   5 at (  70  15   8)
       ---------------------------------------------------------------
       Mesh    1
       Max CFL number:  0.29E+00 at (   4,  15,  40)
       Max divergence:  0.51E-01 at (   8,  16,  20)
       Min divergence: -0.69E-02 at (   7,  16,  20)
       Max VN number:   0.13E+00 at (   8,  16,  34)
       Radiation Loss to Boundaries:        74.235 kW
       Mesh    2
       Max CFL number:  0.30E+00 at (   6,  59,  40)
       Max divergence:  0.66E-01 at (  22,   7,  40)
       Min divergence: -0.77E-02 at (   7,  57,  20)
       Max VN number:   0.15E+00 at (   8,  57,  34)
       Radiation Loss to Boundaries:        70.899 kW
       Mesh    3
       Max CFL number:  0.19E+00 at (   8,   7,  39)
       Max divergence:  0.12E-01 at (   8,  20,  26)
       Min divergence: -0.19E-02 at (   7,  42,  17)
       Max VN number:   0.11E+00 at (  12,   8,  28)
       Radiation Loss to Boundaries:        88.227 kW
       Mesh    4
       Max CFL number:  0.59E+00 at (  62,   2,  22)
       Max divergence:  0.58E-01 at (  63,  54,  22)
       Min divergence: -0.36E-01 at (  63,  54,  21)
       Max VN number:   0.31E+00 at (  63,  19,  22)
       Radiation Loss to Boundaries:        49.979 kW
       Mesh    5
       Max CFL number:  0.82E+00 at (  63,  33,  15)
       Max divergence:  0.54E+01 at (  70,  15,   8)
       Min divergence: -0.84E+00 at (  61,  11,  10)
       Max VN number:   0.58E+00 at (  72,  16,  13)
       Total Heat Release Rate:            685.537 kW
       Radiation Loss to Boundaries:      -178.483 kW
       Mesh    6
       Max CFL number:  0.53E+00 at (   5,  35,  15)
       Max divergence:  0.66E-01 at (   4,  32,  16)
       Min divergence: -0.10E+00 at (   5,  35,  15)
       Max VN number:   0.26E+00 at (   5,  15,  15)
       Radiation Loss to Boundaries:        16.227 kW
       Mesh    7
       Max CFL number:  0.65E+00 at (  63,   2,  32)
       Max divergence:  0.55E-01 at (  61,   7,  13)
       Min divergence: -0.83E-01 at (  71,   7,  14)
       Max VN number:   0.26E+00 at (  63,  42,  15)
       Radiation Loss to Boundaries:        59.153 kW
 
