
 Fire Dynamics Simulator

 Current Date     : October 13, 2020  17:29:08
 Revision         : FDS6.7.5-254-g2178300-master
 Revision Date    : Fri Oct 9 15:16:47 2020 -0400
 Compiler         : Intel ifort 18.0.1
 Compilation Date : Oct 12, 2020 10:43:49

 MPI Enabled;    Number of MPI Processes:       1
 OpenMP Enabled; Number of OpenMP Threads:      4

 MPI version: 3.1
 MPI library version: Intel(R) MPI Library 2018 Update 1 for Linux* OS


 Job TITLE        : 
 Job ID string    : uglmat_mesh1_solid


 Grid Dimensions, Mesh     1

   Cells in the X Direction            90
   Cells in the Y Direction            60
   Cells in the Z Direction            40
   Number of Grid Cells            216000


 Physical Dimensions, Mesh     1

   Length (m)                      18.000
   Width  (m)                      12.000
   Height (m)                       8.000
   Initial Time Step (s)            0.112

Total Number of Grid Cells        216000


 Miscellaneous Parameters

   Simulation Start Time (s)          0.0
   Simulation End Time (s)         5400.0
   LES Calculation
   Eddy Viscosity:           Deardorff Model (C_DEARDORFF = 0.10)
   Near-wall Eddy Viscosity: Smagorinsky with Van Driest damping (C_SMAGORINSKY = 0.20)
   Turbulent Prandtl Number:         0.50
   Turbulent Schmidt Number:         0.50
   Ambient Temperature (C):         20.00


 Mass Fraction Transformation Matrix to Convert Species Mixtures (Columns) to Primitive Species (Rows)

                         AIR       REAC_FUE  PRODUCTS
   REAC_FUEL             0.000000  1.000000  0.000000
   NITROGEN              0.762470  0.000000  0.702658
   OXYGEN                0.230997  0.000000  0.000000
   CARBON DIOXIDE        0.000591  0.000000  0.213555
   CARBON MONOXIDE       0.000000  0.000000  0.000000
   WATER VAPOR           0.005941  0.000000  0.076457
   SOOT                  0.000000  0.000000  0.007330
   HYDROGEN              0.000000  0.000000  0.000000


 Primitive Species Information

   REAC_FUEL
   Gas Species
   Molecular Weight (g/mol)            14.95845
   Ambient Density (kg/m^3)            0.622
   Enthalpy of Formation (J/kg)       -9.27E+06

   NITROGEN
   Gas Species
   Molecular Weight (g/mol)            28.01340
   Ambient Density (kg/m^3)            1.165
   Enthalpy of Formation (J/kg)        0.00E+00

   OXYGEN
   Gas Species
   Molecular Weight (g/mol)            31.99880
   Ambient Density (kg/m^3)            1.330
   Enthalpy of Formation (J/kg)        0.00E+00

   CARBON DIOXIDE
   Gas Species
   Molecular Weight (g/mol)            44.00950
   Ambient Density (kg/m^3)            1.830
   Enthalpy of Formation (J/kg)       -8.94E+06

   CARBON MONOXIDE
   Gas Species
   Molecular Weight (g/mol)            28.01010
   Ambient Density (kg/m^3)            1.164
   Enthalpy of Formation (J/kg)       -3.95E+06

   WATER VAPOR
   Gas Species
   Molecular Weight (g/mol)            18.01528
   Ambient Density (kg/m^3)            0.749
   Enthalpy of Formation (J/kg)       -1.34E+07

   SOOT
   Gas Species
   Molecular Weight (g/mol)            10.91042
   Ambient Density (kg/m^3)            0.454
   Enthalpy of Formation (J/kg)        0.00E+00

   HYDROGEN
   Gas Species
   Molecular Weight (g/mol)             2.01588
   Ambient Density (kg/m^3)            0.084
   Enthalpy of Formation (J/kg)        0.00E+00


 Tracked (Lumped) Species Information

   AIR
   Molecular Weight (g/mol)            28.75199
   Ambient Density (kg/m^3)            1.195
   Initial Mass Fraction               1.000
   Enthalpy of Formation (J/kg)     -8.50E+04

   Sub Species                    Mass Fraction     Mole Fraction
   NITROGEN                       7.624701E-01      7.825730E-01
   OXYGEN                         2.309974E-01      2.075589E-01
   CARBON DIOXIDE                 5.914651E-04      3.864120E-04
   WATER VAPOR                    5.940984E-03      9.481679E-03
 
     Viscosity (kg/m/s) Ambient,  293 K:  1.80E-05
                                  500 K:  2.61E-05
                                 1000 K:  4.13E-05
                                 1500 K:  5.37E-05
   Therm. Cond. (W/m/K) Ambient,  293 K:  2.56E-02
                                  500 K:  3.81E-02
                                 1000 K:  6.69E-02
                                 1500 K:  9.25E-02
        Enthalpy (J/kg) Ambient,  293 K: -9.01E+04
                                  500 K:  1.22E+05
                                 1000 K:  6.72E+05
                                 1500 K:  1.27E+06
    Spec. Heat (J/kg/K) Ambient,  293 K:  1.02E+03
                                  500 K:  1.04E+03
                                 1000 K:  1.16E+03
                                 1500 K:  1.23E+03
   Diff. Coeff. (m^2/s) Ambient,  293 K:  1.99E-05
                                  500 K:  4.96E-05
                                 1000 K:  1.58E-04
                                 1500 K:  3.09E-04

   REAC_FUEL
   Molecular Weight (g/mol)            14.95845
   Ambient Density (kg/m^3)            0.622
   Initial Mass Fraction               0.000
   Enthalpy of Formation (J/kg)     -9.27E+06

   Sub Species                    Mass Fraction     Mole Fraction
   REAC_FUEL                      1.000000E+00      1.000000E+00
 
     Viscosity (kg/m/s) Ambient,  293 K:  1.27E-05
                                  500 K:  1.84E-05
                                 1000 K:  2.89E-05
                                 1500 K:  3.75E-05
   Therm. Cond. (W/m/K) Ambient,  293 K:  3.48E-02
                                  500 K:  5.03E-02
                                 1000 K:  7.91E-02
                                 1500 K:  1.03E-01
        Enthalpy (J/kg) Ambient,  293 K: -9.28E+06
                                  500 K: -8.87E+06
                                 1000 K: -7.90E+06
                                 1500 K: -6.93E+06
    Spec. Heat (J/kg/K) Ambient,  293 K:  1.95E+03
                                  500 K:  1.95E+03
                                 1000 K:  1.95E+03
                                 1500 K:  1.95E+03
   Diff. Coeff. (m^2/s) Ambient,  293 K:  2.38E-05
                                  500 K:  5.91E-05
                                 1000 K:  1.88E-04
                                 1500 K:  3.68E-04

   PRODUCTS
   Molecular Weight (g/mol)            28.69337
   Ambient Density (kg/m^3)            1.193
   Initial Mass Fraction               0.000
   Enthalpy of Formation (J/kg)     -2.94E+06

   Sub Species                    Mass Fraction     Mole Fraction
   NITROGEN                       7.026583E-01      7.197139E-01
   CARBON DIOXIDE                 2.135546E-01      1.392336E-01
   CARBON MONOXIDE                0.000000E+00      0.000000E+00
   WATER VAPOR                    7.645708E-02      1.217750E-01
   SOOT                           7.330093E-03      1.927744E-02
 
     Viscosity (kg/m/s) Ambient,  293 K:  1.62E-05
                                  500 K:  2.40E-05
                                 1000 K:  3.89E-05
                                 1500 K:  5.12E-05
   Therm. Cond. (W/m/K) Ambient,  293 K:  2.32E-02
                                  500 K:  3.61E-02
                                 1000 K:  6.68E-02
                                 1500 K:  9.51E-02
        Enthalpy (J/kg) Ambient,  293 K: -2.94E+06
                                  500 K: -2.72E+06
                                 1000 K: -2.12E+06
                                 1500 K: -1.45E+06
    Spec. Heat (J/kg/K) Ambient,  293 K:  1.06E+03
                                  500 K:  1.12E+03
                                 1000 K:  1.27E+03
                                 1500 K:  1.37E+03
   Diff. Coeff. (m^2/s) Ambient,  293 K:  1.95E-05
                                  500 K:  4.92E-05
                                 1000 K:  1.58E-04
                                 1500 K:  3.11E-04


 Gas Phase Reaction Information

   Mischbrandlast aus:		40% Polyethylen,30% Styropor, 30% Polyurethan

   Reaction ID:  Reaction1

   Fuel                                           Heat of Combustion (kJ/kg)
   REAC_FUEL                                                      25820.0000

   Stoichiometry

   Primitive Species Stoich. Coeff.
   Species ID                                                          Molar
   REAC_FUEL                                                       -1.000000
   NITROGEN                                                         0.015000
   OXYGEN                                                          -1.217862
   CARBON DIOXIDE                                                   0.888947
   WATER VAPOR                                                      0.723830
   SOOT                                                             0.123392

   Tracked (Lumped) Species Stoich. Coeff.
   Species ID                                             Molar         Mass
   AIR                                                -5.867550   -11.278153
   REAC_FUEL                                          -1.000000    -1.000000
   PRODUCTS                                            6.400858    12.278153

   Reaction Kinetics

   Arrhenius Parameters
   Pre-exponential:    Infinite
   Activation Energy:  N/A

   ODE Solver:  EXPLICIT EULER
   Extinction Model:  EXTINCTION 2
   Auto-Ignition Temperature (K):       0.0
   Critical Flame Temperature (K):   1700.2


 Material Information

   1 CONCRETE                                                    
     Stahlbeton C30-C37 WU
     Emissivity                      0.900
     Density (kg/m3)                2400.0
     Specific Heat (kJ/kg/K)      1.00E+00
     Conductivity (W/m/K)          2.10E+00

   2 STEEL                                                       
     Drysdale, Intro to Fire Dynamics - ATF NIST Multi-Floor Validation
     Emissivity                     95.000
     Density (kg/m3)                7850.0
     Specific Heat (kJ/kg/K)      4.60E-01
     Conductivity (W/m/K)          4.58E+01

   3 STEEL03                                                     
     Drysdale, Intro to Fire Dynamics - ATF NIST Multi-Floor Validation
     Emissivity                      0.950
     Density (kg/m3)                7850.0
     Specific Heat (kJ/kg/K)      4.60E-01
     Conductivity (W/m/K)          4.58E+01


 Surface Conditions

   0 INERT (DEFAULT)

   1 ADIABATIC

   2 BETON
     Material List
          1  CONCRETE
     Layer  1
        Thickness   (m):  0.10000
        Density (kg/m3):  2400.00
        CONCRETE, Mass fraction:    1.00
     Total surface density   240.000 kg/m2
     Reaction products considered from the first  0.50 layers.
     Solid Phase Node, Layer, Coordinates(m):
                    0      1       0.0000000
                    1      1       0.0007937
                    2      1       0.0023810
                    3      1       0.0055556
                    4      1       0.0119048
                    5      1       0.0246032
                    6      1       0.0500000
                    7      1       0.0753968
                    8      1       0.0880952
                    9      1       0.0944444
                   10      1       0.0976190
                   11      1       0.0992063
                   12      1       0.1000000
     Exposed Backing

   3 STAHL
     Material List
          1  STEEL
     Layer  1
        Thickness   (m):  0.05000
        Density (kg/m3):  7850.00
        STEEL, Mass fraction:    1.00
     Total surface density   392.500 kg/m2
     Reaction products considered from the first  0.50 layers.
     Solid Phase Node, Layer, Coordinates(m):
                    0      1       0.0000000
                    1      1       0.0022727
                    2      1       0.0068182
                    3      1       0.0159091
                    4      1       0.0340909
                    5      1       0.0431818
                    6      1       0.0477273
                    7      1       0.0500000
     Exposed Backing

   4 CAR_BODY02
     Properties completely fabricated
     Material List
          1  STEEL03
     Layer  1
        Thickness   (m):  0.00120
        Density (kg/m3):  7850.00
        STEEL03, Mass fraction:    1.00
     Total surface density     9.420 kg/m2
     Reaction products considered from the first  0.50 layers.
     Solid Phase Node, Layer, Coordinates(m):
                    0      1       0.0000000
                    1      1       0.0012000
     Exposed Backing

   5 BURNER1_PKW1
     HRR Per Unit Area (kW/m2)       1921.3
     REAC_FUEL Mass Flux (kg/s/m2)   7.44E-02

   6 BURNER2_VAN
     HRR Per Unit Area (kW/m2)       3846.2
     REAC_FUEL Mass Flux (kg/s/m2)   1.49E-01

   7 BURNER3_PKW2
     HRR Per Unit Area (kW/m2)       1921.3
     REAC_FUEL Mass Flux (kg/s/m2)   7.44E-02

   8 BURNER4_PKW3
     HRR Per Unit Area (kW/m2)       1921.3
     REAC_FUEL Mass Flux (kg/s/m2)   7.44E-02

   9 OPEN
     Passive Vent to Atmosphere

  10 MIRROR
     Symmetry Plane

  11 INTERPOLATED

  12 PERIODIC

  13 HVAC

  14 MASSLESS TRACER

  15 DROPLET

  16 EVACUATION_OUTFLOW
     Normal Velocity (m/s)         0.000

  17 MASSLESS TARGET

  18 PERIODIC FLOW ONLY


 Cut-off Density and Temperature

    Minimum Temperature:   -10.0 C
    Maximum Temperature:  2726.8 C
    Minimum Density:  1.195E-01 kg/m3
    Maximum Density:  2.663E+00 kg/m3


 Device Coordinates

     1 Coords:     48.100000     16.500000      1.500000, Make: null, ID: SZ2_SM_2/0_2_110, Quantity: ADIABATIC SURFACE TEMPERATURE
     2 Coords:     48.300000     16.700000      1.500000, Make: null, ID: SZ2_SM_2/0_3_110, Quantity: ADIABATIC SURFACE TEMPERATURE
     3 Coords:     47.900000     16.700000      1.500000, Make: null, ID: SZ2_SM_2/0_4_110, Quantity: ADIABATIC SURFACE TEMPERATURE
     4 Coords:     48.100000     16.500000      1.700000, Make: null, ID: SZ2_SM_2/0_2_130, Quantity: ADIABATIC SURFACE TEMPERATURE
     5 Coords:     48.300000     16.700000      1.700000, Make: null, ID: SZ2_SM_2/0_3_130, Quantity: ADIABATIC SURFACE TEMPERATURE
     6 Coords:     47.900000     16.700000      1.700000, Make: null, ID: SZ2_SM_2/0_4_130, Quantity: ADIABATIC SURFACE TEMPERATURE
     7 Coords:     48.100000     16.900000      1.900000, Make: null, ID: SZ2_SM_2/0_1_150, Quantity: ADIABATIC SURFACE TEMPERATURE
     8 Coords:     48.100000     16.500000      1.900000, Make: null, ID: SZ2_SM_2/0_2_150, Quantity: ADIABATIC SURFACE TEMPERATURE
     9 Coords:     48.300000     16.700000      1.900000, Make: null, ID: SZ2_SM_2/0_3_150, Quantity: ADIABATIC SURFACE TEMPERATURE
    10 Coords:     47.900000     16.700000      1.900000, Make: null, ID: SZ2_SM_2/0_4_150, Quantity: ADIABATIC SURFACE TEMPERATURE
    11 Coords:     48.100000     16.900000      2.700000, Make: null, ID: SZ2_SM_2/0_1_230, Quantity: ADIABATIC SURFACE TEMPERATURE
    12 Coords:     48.300000     16.700000      2.700000, Make: null, ID: SZ2_SM_2/0_3_230, Quantity: ADIABATIC SURFACE TEMPERATURE
    13 Coords:     47.900000     16.700000      2.700000, Make: null, ID: SZ2_SM_2/0_4_230, Quantity: ADIABATIC SURFACE TEMPERATURE
    14 Coords:     48.100000     16.900000      3.300000, Make: null, ID: SZ2_SM_2/0_1_290, Quantity: ADIABATIC SURFACE TEMPERATURE
    15 Coords:     48.100000     16.500000      3.300000, Make: null, ID: SZ2_SM_2/0_2_290, Quantity: ADIABATIC SURFACE TEMPERATURE
    16 Coords:     48.100000     16.900000      3.500000, Make: null, ID: SZ2_SM_2/0_1_310, Quantity: ADIABATIC SURFACE TEMPERATURE
    17 Coords:     48.100000     16.500000      3.500000, Make: null, ID: SZ2_SM_2/0_2_310, Quantity: ADIABATIC SURFACE TEMPERATURE
    18 Coords:     48.100000     16.900000      3.700000, Make: null, ID: SZ2_SM_2/0_1_330, Quantity: ADIABATIC SURFACE TEMPERATURE
    19 Coords:     48.100000     16.500000      3.700000, Make: null, ID: SZ2_SM_2/0_2_330, Quantity: ADIABATIC SURFACE TEMPERATURE
    20 Coords:     48.100000     16.500000      4.300000, Make: null, ID: SZ2_SM_2/0_2_390, Quantity: ADIABATIC SURFACE TEMPERATURE
    21 Coords:     50.700000     16.500000      1.500000, Make: null, ID: SZ2_SM_3/0_2_110, Quantity: ADIABATIC SURFACE TEMPERATURE
    22 Coords:     50.900000     16.700000      1.500000, Make: null, ID: SZ2_SM_3/0_3_110, Quantity: ADIABATIC SURFACE TEMPERATURE
    23 Coords:     50.500000     16.700000      1.500000, Make: null, ID: SZ2_SM_3/0_4_110, Quantity: ADIABATIC SURFACE TEMPERATURE
    24 Coords:     50.700000     16.500000      1.700000, Make: null, ID: SZ2_SM_3/0_2_130, Quantity: ADIABATIC SURFACE TEMPERATURE
    25 Coords:     50.900000     16.700000      1.700000, Make: null, ID: SZ2_SM_3/0_3_130, Quantity: ADIABATIC SURFACE TEMPERATURE
    26 Coords:     50.500000     16.700000      1.700000, Make: null, ID: SZ2_SM_3/0_4_130, Quantity: ADIABATIC SURFACE TEMPERATURE
    27 Coords:     50.700000     16.900000      1.900000, Make: null, ID: SZ2_SM_3/0_1_150, Quantity: ADIABATIC SURFACE TEMPERATURE
    28 Coords:     50.700000     16.500000      1.900000, Make: null, ID: SZ2_SM_3/0_2_150, Quantity: ADIABATIC SURFACE TEMPERATURE
    29 Coords:     50.900000     16.700000      1.900000, Make: null, ID: SZ2_SM_3/0_3_150, Quantity: ADIABATIC SURFACE TEMPERATURE
    30 Coords:     50.500000     16.700000      1.900000, Make: null, ID: SZ2_SM_3/0_4_150, Quantity: ADIABATIC SURFACE TEMPERATURE
    31 Coords:     50.700000     16.900000      2.700000, Make: null, ID: SZ2_SM_3/0_1_230, Quantity: ADIABATIC SURFACE TEMPERATURE
    32 Coords:     50.900000     16.700000      2.700000, Make: null, ID: SZ2_SM_3/0_3_230, Quantity: ADIABATIC SURFACE TEMPERATURE
    33 Coords:     50.500000     16.700000      2.700000, Make: null, ID: SZ2_SM_3/0_4_230, Quantity: ADIABATIC SURFACE TEMPERATURE
    34 Coords:     50.700000     16.900000      3.300000, Make: null, ID: SZ2_SM_3/0_1_290, Quantity: ADIABATIC SURFACE TEMPERATURE
    35 Coords:     50.700000     16.500000      3.300000, Make: null, ID: SZ2_SM_3/0_2_290, Quantity: ADIABATIC SURFACE TEMPERATURE
    36 Coords:     50.700000     16.900000      3.500000, Make: null, ID: SZ2_SM_3/0_1_310, Quantity: ADIABATIC SURFACE TEMPERATURE
    37 Coords:     50.700000     16.500000      3.500000, Make: null, ID: SZ2_SM_3/0_2_310, Quantity: ADIABATIC SURFACE TEMPERATURE
    38 Coords:     50.700000     16.900000      3.700000, Make: null, ID: SZ2_SM_3/0_1_330, Quantity: ADIABATIC SURFACE TEMPERATURE
    39 Coords:     50.700000     16.500000      3.700000, Make: null, ID: SZ2_SM_3/0_2_330, Quantity: ADIABATIC SURFACE TEMPERATURE
    40 Coords:     50.700000     16.500000      4.300000, Make: null, ID: SZ2_SM_3/0_2_390, Quantity: ADIABATIC SURFACE TEMPERATURE
    41 Coords:     48.100000     17.900000      3.900000, Make: null, ID: SZ2_DT_2/1.20_1, Quantity: ADIABATIC SURFACE TEMPERATURE
    42 Coords:     48.100000     18.300000      3.900000, Make: null, ID: SZ2_DT_2/1.60_1, Quantity: ADIABATIC SURFACE TEMPERATURE
    43 Coords:     48.100000     18.700000      3.900000, Make: null, ID: SZ2_DT_2/2.00_1, Quantity: ADIABATIC SURFACE TEMPERATURE
    44 Coords:     48.100000     19.100000      3.900000, Make: null, ID: SZ2_DT_2/2.40_1, Quantity: ADIABATIC SURFACE TEMPERATURE
    45 Coords:     48.100000     19.500000      3.900000, Make: null, ID: SZ2_DT_2/2.80_1, Quantity: ADIABATIC SURFACE TEMPERATURE
    46 Coords:     48.100000     19.900000      3.900000, Make: null, ID: SZ2_DT_2/3.20_1, Quantity: ADIABATIC SURFACE TEMPERATURE
    47 Coords:     48.100000     20.300000      3.900000, Make: null, ID: SZ2_DT_2/3.60_1, Quantity: ADIABATIC SURFACE TEMPERATURE
    48 Coords:     48.100000     20.700000      3.900000, Make: null, ID: SZ2_DT_2/4.00_1, Quantity: ADIABATIC SURFACE TEMPERATURE
    49 Coords:     48.100000     21.700000      3.900000, Make: null, ID: SZ2_DT_2/5.00_1, Quantity: ADIABATIC SURFACE TEMPERATURE
    50 Coords:     48.100000     15.500000      2.500000, Make: null, ID: SZ2_DT_2/-1.20_1, Quantity: ADIABATIC SURFACE TEMPERATURE
    51 Coords:     48.100000     15.100000      2.500000, Make: null, ID: SZ2_DT_2/-1.60_1, Quantity: ADIABATIC SURFACE TEMPERATURE
    52 Coords:     48.100000     14.700000      2.500000, Make: null, ID: SZ2_DT_2/-2.00_1, Quantity: ADIABATIC SURFACE TEMPERATURE
    53 Coords:     48.100000     14.300000      2.500000, Make: null, ID: SZ2_DT_2/-2.40_1, Quantity: ADIABATIC SURFACE TEMPERATURE
    54 Coords:     48.100000     13.900000      2.500000, Make: null, ID: SZ2_DT_2/-2.80_1, Quantity: ADIABATIC SURFACE TEMPERATURE
    55 Coords:     48.100000     13.500000      2.500000, Make: null, ID: SZ2_DT_2/-3.20_1, Quantity: ADIABATIC SURFACE TEMPERATURE
    56 Coords:     48.100000     13.100000      2.500000, Make: null, ID: SZ2_DT_2/-3.60_1, Quantity: ADIABATIC SURFACE TEMPERATURE
    57 Coords:     48.100000     12.700000      2.500000, Make: null, ID: SZ2_DT_2/-4.00_2, Quantity: ADIABATIC SURFACE TEMPERATURE
    58 Coords:     48.100000     11.700000      2.500000, Make: null, ID: SZ2_DT_2/-5.00_1, Quantity: ADIABATIC SURFACE TEMPERATURE
    59 Coords:     50.700000     17.900000      3.900000, Make: null, ID: SZ2_DT_3/1.20_1, Quantity: ADIABATIC SURFACE TEMPERATURE
    60 Coords:     50.700000     18.300000      3.900000, Make: null, ID: SZ2_DT_3/1.60_1, Quantity: ADIABATIC SURFACE TEMPERATURE
    61 Coords:     50.700000     18.700000      3.900000, Make: null, ID: SZ2_DT_3/2.00_1, Quantity: ADIABATIC SURFACE TEMPERATURE
    62 Coords:     50.700000     19.100000      3.900000, Make: null, ID: SZ2_DT_3/2.40_1, Quantity: ADIABATIC SURFACE TEMPERATURE
    63 Coords:     50.700000     19.500000      3.900000, Make: null, ID: SZ2_DT_3/2.80_1, Quantity: ADIABATIC SURFACE TEMPERATURE
    64 Coords:     50.700000     19.900000      3.900000, Make: null, ID: SZ2_DT_3/3.20_1, Quantity: ADIABATIC SURFACE TEMPERATURE
    65 Coords:     50.700000     20.300000      3.900000, Make: null, ID: SZ2_DT_3/3.60_1, Quantity: ADIABATIC SURFACE TEMPERATURE
    66 Coords:     50.700000     20.700000      3.900000, Make: null, ID: SZ2_DT_3/4.00_1, Quantity: ADIABATIC SURFACE TEMPERATURE
    67 Coords:     50.700000     21.700000      3.900000, Make: null, ID: SZ2_DT_3/5.00_1, Quantity: ADIABATIC SURFACE TEMPERATURE
    68 Coords:     50.700000     15.500000      2.500000, Make: null, ID: SZ2_DT_3/-1.20_1, Quantity: ADIABATIC SURFACE TEMPERATURE
    69 Coords:     50.700000     15.100000      2.500000, Make: null, ID: SZ2_DT_3/-1.60_1, Quantity: ADIABATIC SURFACE TEMPERATURE
    70 Coords:     50.700000     14.700000      2.500000, Make: null, ID: SZ2_DT_3/-2.00_1, Quantity: ADIABATIC SURFACE TEMPERATURE
    71 Coords:     50.700000     14.300000      2.500000, Make: null, ID: SZ2_DT_3/-2.40_1, Quantity: ADIABATIC SURFACE TEMPERATURE
    72 Coords:     50.700000     13.900000      2.500000, Make: null, ID: SZ2_DT_3/-2.80_1, Quantity: ADIABATIC SURFACE TEMPERATURE
    73 Coords:     50.700000     13.500000      2.500000, Make: null, ID: SZ2_DT_3/-3.20_1, Quantity: ADIABATIC SURFACE TEMPERATURE
    74 Coords:     50.700000     11.700000      2.500000, Make: null, ID: SZ2_DT_3/-5.00_1, Quantity: ADIABATIC SURFACE TEMPERATURE
    75 Coords:     50.700000     13.100000      2.500000, Make: null, ID: SZ2_DT_3/-3.60_1, Quantity: ADIABATIC SURFACE TEMPERATURE
    76 Coords:     50.700000     12.700000      2.500000, Make: null, ID: SZ2_DT_3/-4.00_1, Quantity: ADIABATIC SURFACE TEMPERATURE


 PLOT3D Information

   Sampling Interval (s)              30.0

   1 Quantity: TEMPERATURE
   2 Quantity: U-VELOCITY
   3 Quantity: V-VELOCITY
   4 Quantity: W-VELOCITY
   5 Quantity: VISIBILITY, Species: SOOT


 Slice File Information, Mesh     1

   Sampling Interval (s)             1.000

   1 Nodes:   0  90  44  44   0  40, Quantity: TEMPERATURE
   2 Nodes:   0  90   0  60  12  12, Quantity: TEMPERATURE
   3 Nodes:   0  90   0  60  20  20, Quantity: TEMPERATURE
   4 Nodes:   0  90  18  18   0  40, Quantity: TEMPERATURE


 Radiation Model Information

   Number of control angles  104
   Time step increment         3
   Angle increment             5
   Theta band N_phi   Solid angle
     1:        4     0.120
     2:       12     0.114
     3:       16     0.127
     4:       20     0.120
     5:       20     0.120
     6:       16     0.127
     7:       12     0.114
     8:        4     0.120
   Using gray gas absorption.
   Mean beam length  0.100 m


 GlMat Information

   Global Pressure solver       : Intel MKL Cluster Sparse Solver
 
 
   Using GLMAT as pressure solver. List of H unknown numbers per proc:
    MPI Process, H unknowns =           0      179502 , Peak Factorization Memory Required (MB)=         284

 Run Time Diagnostics

       Time Step       1   October 13, 2020  17:29:11
       Step Size:    0.112E+00 s, Total Time:       0.11 s
       Pressure Iterations:      1
       Maximum Velocity Error:  0.87E-18 on Mesh   1 at (  31  25   2)
       Maximum Pressure Error:  0.28E-03 on Mesh   1 at (  67  13  40)
       ---------------------------------------------------------------
       Max CFL number:  0.11E-01 at (  54,  41,   7)
       Max divergence:  0.27E-02 at (  31,  32,  20)
       Min divergence: -0.12E-02 at (  18,  31,  24)
       Max VN number:   0.85E-02 at (  19,  25,  37)
       Radiation Loss to Boundaries:        14.929 kW
 
       Time Step       2   October 13, 2020  17:29:12
       Step Size:    0.112E+00 s, Total Time:       0.22 s
       Pressure Iterations:      1
       Maximum Velocity Error:  0.00E+00 on Mesh   1 at (  31  25   2)
       Maximum Pressure Error:  0.84E-04 on Mesh   1 at (  20  32  22)
       ---------------------------------------------------------------
       Max CFL number:  0.11E-01 at (  54,  41,   7)
       Max divergence:  0.55E-02 at (  20,  32,  21)
       Min divergence: -0.11E-02 at (  18,  31,  24)
       Max VN number:   0.85E-02 at (  19,  25,  37)
       Radiation Loss to Boundaries:        14.925 kW
 
       Time Step       3   October 13, 2020  17:29:13
       Step Size:    0.112E+00 s, Total Time:       0.34 s
       Pressure Iterations:      1
       Maximum Velocity Error:  0.00E+00 on Mesh   1 at (  31  25   2)
       Maximum Pressure Error:  0.61E-04 on Mesh   1 at (  20  32  22)
       ---------------------------------------------------------------
       Max CFL number:  0.11E-01 at (  54,  41,   7)
       Max divergence:  0.53E-02 at (  20,  32,  21)
       Min divergence: -0.11E-02 at (  18,  31,  24)
       Max VN number:   0.85E-02 at (  19,  25,  37)
       Radiation Loss to Boundaries:        14.601 kW
 
       Time Step       4   October 13, 2020  17:29:14
       Step Size:    0.112E+00 s, Total Time:       0.45 s
       Pressure Iterations:      1
       Maximum Velocity Error:  0.68E-20 on Mesh   1 at (  29  11   7)
       Maximum Pressure Error:  0.17E-03 on Mesh   1 at (  19  29  13)
       ---------------------------------------------------------------
       Max CFL number:  0.11E-01 at (  54,  41,   7)
       Max divergence:  0.43E-02 at (  20,  32,  20)
       Min divergence: -0.11E-02 at (  18,  31,  24)
       Max VN number:   0.85E-02 at (  19,  25,  37)
       Total Heat Release Rate:              1.050 kW
       Radiation Loss to Boundaries:        14.597 kW
 
       Time Step       5   October 13, 2020  17:29:15
       Step Size:    0.112E+00 s, Total Time:       0.56 s
       Pressure Iterations:      1
       Maximum Velocity Error:  0.00E+00 on Mesh   1 at (  29  11   7)
       Maximum Pressure Error:  0.47E-03 on Mesh   1 at (  29  16   8)
       ---------------------------------------------------------------
       Max CFL number:  0.11E-01 at (  54,  41,   7)
       Max divergence:  0.89E-02 at (  23,  20,   8)
       Min divergence: -0.11E-02 at (  18,  31,  24)
       Max VN number:   0.84E-02 at (  19,  25,  37)
       Total Heat Release Rate:              2.703 kW
       Radiation Loss to Boundaries:        14.593 kW
 
       Time Step       6   October 13, 2020  17:29:16
       Step Size:    0.112E+00 s, Total Time:       0.67 s
       Pressure Iterations:      1
       Maximum Velocity Error:  0.00E+00 on Mesh   1 at (  29  11   7)
       Maximum Pressure Error:  0.91E-03 on Mesh   1 at (  29  16   8)
       ---------------------------------------------------------------
       Max CFL number:  0.11E-01 at (  54,  41,   7)
       Max divergence:  0.12E-01 at (  21,  20,   8)
       Min divergence: -0.11E-02 at (  18,  31,  24)
       Max VN number:   0.84E-02 at (  19,  25,  37)
       Total Heat Release Rate:              3.653 kW
       Radiation Loss to Boundaries:        14.291 kW
 
       Time Step       7   October 13, 2020  17:29:17
       Step Size:    0.112E+00 s, Total Time:       0.78 s
       Pressure Iterations:      1
       Maximum Velocity Error:  0.00E+00 on Mesh   1 at (  29  11   7)
       Maximum Pressure Error:  0.10E-02 on Mesh   1 at (  29  16   8)
       ---------------------------------------------------------------
       Max CFL number:  0.11E-01 at (  30,  29,  14)
       Max divergence:  0.14E-01 at (  22,  18,   8)
       Min divergence: -0.12E-02 at (  31,  32,  21)
       Max VN number:   0.84E-02 at (  19,  25,  37)
       Total Heat Release Rate:              4.200 kW
       Radiation Loss to Boundaries:        14.287 kW
 
       Time Step       8   October 13, 2020  17:29:18
       Step Size:    0.112E+00 s, Total Time:       0.89 s
       Pressure Iterations:      1
       Maximum Velocity Error:  0.00E+00 on Mesh   1 at (  29  11   7)
       Maximum Pressure Error:  0.95E-03 on Mesh   1 at (  29  17   8)
       ---------------------------------------------------------------
       Max CFL number:  0.11E-01 at (  30,  29,  14)
       Max divergence:  0.15E-01 at (  24,  20,   8)
       Min divergence: -0.12E-02 at (  31,  32,  21)
       Max VN number:   0.83E-02 at (  19,  25,  37)
       Total Heat Release Rate:              4.514 kW
       Radiation Loss to Boundaries:        14.282 kW
 
       Time Step       9   October 13, 2020  17:29:19
       Step Size:    0.112E+00 s, Total Time:       1.01 s
       Pressure Iterations:      1
       Maximum Velocity Error:  0.00E+00 on Mesh   1 at (  29  11   7)
       Maximum Pressure Error:  0.88E-03 on Mesh   1 at (  20  32  22)
       ---------------------------------------------------------------
       Max CFL number:  0.11E-01 at (  29,  11,   9)
       Max divergence:  0.15E-01 at (  24,  20,   8)
       Min divergence: -0.12E-02 at (  31,  32,  21)
       Max VN number:   0.83E-02 at (  19,  25,  37)
       Total Heat Release Rate:              4.694 kW
       Radiation Loss to Boundaries:        14.160 kW
 
       Time Step      10   October 13, 2020  17:29:20
       Step Size:    0.112E+00 s, Total Time:       1.12 s
       Pressure Iterations:      1
       Maximum Velocity Error:  0.00E+00 on Mesh   1 at (  29  11   7)
       Maximum Pressure Error:  0.88E-03 on Mesh   1 at (  20  32  22)
       ---------------------------------------------------------------
       Max CFL number:  0.12E-01 at (  29,  11,   9)
       Max divergence:  0.15E-01 at (  24,  20,   8)
       Min divergence: -0.13E-02 at (  18,  32,  22)
       Max VN number:   0.83E-02 at (  19,  25,  37)
       Total Heat Release Rate:              4.798 kW
       Radiation Loss to Boundaries:        14.156 kW
 
       Time Step      20   October 13, 2020  17:29:31
       Step Size:    0.112E+00 s, Total Time:       2.24 s
       Pressure Iterations:      1
       Maximum Velocity Error:  0.00E+00 on Mesh   1 at (  22  21   7)
       Maximum Pressure Error:  0.48E-01 on Mesh   1 at (  29  16   8)
       ---------------------------------------------------------------
       Max CFL number:  0.33E-01 at (  20,  32,  20)
       Max divergence:  0.40E-01 at (  25,  18,   8)
       Min divergence: -0.13E-02 at (  20,  32,  22)
       Max VN number:   0.13E-01 at (  20,  11,   9)
       Total Heat Release Rate:             12.533 kW
       Radiation Loss to Boundaries:        13.448 kW
 
       Time Step      30   October 13, 2020  17:29:41
       Step Size:    0.112E+00 s, Total Time:       3.35 s
       Pressure Iterations:      1
       Maximum Velocity Error:  0.00E+00 on Mesh   1 at (  22  21   7)
       Maximum Pressure Error:  0.10E+00 on Mesh   1 at (  29  21   8)
       ---------------------------------------------------------------
       Max CFL number:  0.87E-01 at (  21,  20,   8)
       Max divergence:  0.63E-01 at (  23,  20,   8)
       Min divergence: -0.11E-02 at (  18,  31,  24)
       Max VN number:   0.36E-01 at (  21,  20,   8)
       Total Heat Release Rate:             19.006 kW
       Radiation Loss to Boundaries:        12.403 kW
 
       Time Step      40   October 13, 2020  17:29:52
       Step Size:    0.112E+00 s, Total Time:       4.47 s
       Pressure Iterations:      1
       Maximum Velocity Error:  0.00E+00 on Mesh   1 at (  22  21   7)
       Maximum Pressure Error:  0.23E+00 on Mesh   1 at (  26  19   8)
       ---------------------------------------------------------------
       Max CFL number:  0.21E+00 at (  22,  11,   8)
       Max divergence:  0.81E-01 at (  26,  15,   8)
       Min divergence: -0.34E-01 at (  23,  20,   9)
       Max VN number:   0.13E+00 at (  22,  11,   8)
       Total Heat Release Rate:             24.549 kW
       Radiation Loss to Boundaries:        10.575 kW
 
       Time Step      50   October 13, 2020  17:30:02
       Step Size:    0.112E+00 s, Total Time:       5.59 s
       Pressure Iterations:      1
       Maximum Velocity Error:  0.00E+00 on Mesh   1 at (  22  21   7)
       Maximum Pressure Error:  0.60E+00 on Mesh   1 at (  25  15   8)
       ---------------------------------------------------------------
       Max CFL number:  0.45E+00 at (  26,  19,   9)
       Max divergence:  0.13E+00 at (  27,  11,   8)
       Min divergence: -0.83E-01 at (  27,  13,   9)
       Max VN number:   0.25E+00 at (  27,  12,   8)
       Total Heat Release Rate:             32.287 kW
       Radiation Loss to Boundaries:         6.666 kW
 
       Time Step      60   October 13, 2020  17:30:13
       Step Size:    0.112E+00 s, Total Time:       6.71 s
       Pressure Iterations:      1
       Maximum Velocity Error:  0.00E+00 on Mesh   1 at (  22  21   7)
       Maximum Pressure Error:  0.12E+01 on Mesh   1 at (  24  18  10)
       ---------------------------------------------------------------
       Max CFL number:  0.56E+00 at (  24,  13,   9)
       Max divergence:  0.18E+00 at (  23,  13,   8)
       Min divergence: -0.60E-01 at (  24,  17,   9)
       Max VN number:   0.33E+00 at (  24,  17,  10)
       Total Heat Release Rate:             38.769 kW
       Radiation Loss to Boundaries:         2.984 kW
 
       Time Step      70   October 13, 2020  17:30:23
       Step Size:    0.112E+00 s, Total Time:       7.83 s
       Pressure Iterations:      1
       Maximum Velocity Error:  0.00E+00 on Mesh   1 at (  22  21   7)
       Maximum Pressure Error:  0.13E+01 on Mesh   1 at (  24  17  10)
       ---------------------------------------------------------------
       Max CFL number:  0.52E+00 at (  20,  16,  10)
       Max divergence:  0.16E+00 at (  23,  14,   8)
       Min divergence: -0.41E-01 at (  20,  16,  10)
       Max VN number:   0.33E+00 at (  25,  15,   8)
       Total Heat Release Rate:             44.305 kW
       Radiation Loss to Boundaries:         1.028 kW
 
       Time Step      80   October 13, 2020  17:30:33
       Step Size:    0.112E+00 s, Total Time:       8.94 s
       Pressure Iterations:      1
       Maximum Velocity Error:  0.00E+00 on Mesh   1 at (  22  21   7)
       Maximum Pressure Error:  0.23E+01 on Mesh   1 at (  26  15  10)
       ---------------------------------------------------------------
       Max CFL number:  0.61E+00 at (  30,  17,  10)
       Max divergence:  0.20E+00 at (  24,  16,   8)
       Min divergence: -0.60E-01 at (  20,  16,  10)
       Max VN number:   0.46E+00 at (  31,  14,  10)
       Total Heat Release Rate:             52.041 kW
       Radiation Loss to Boundaries:        -2.511 kW
 
       Time Step      90   October 13, 2020  17:30:44
       Step Size:    0.112E+00 s, Total Time:      10.06 s
       Pressure Iterations:      1
       Maximum Velocity Error:  0.00E+00 on Mesh   1 at (  22  21   7)
       Maximum Pressure Error:  0.33E+01 on Mesh   1 at (  26  15  10)
       ---------------------------------------------------------------
       Max CFL number:  0.67E+00 at (  29,  15,  15)
       Max divergence:  0.17E+00 at (  23,  12,   8)
       Min divergence: -0.62E-01 at (  29,  17,  10)
       Max VN number:   0.49E+00 at (  31,  17,  10)
       Total Heat Release Rate:             58.513 kW
       Radiation Loss to Boundaries:        -6.217 kW
 
       Time Step     100   October 13, 2020  17:30:55
       Step Size:    0.112E+00 s, Total Time:      11.18 s
       Pressure Iterations:      1
       Maximum Velocity Error:  0.00E+00 on Mesh   1 at (  22  21   7)
       Maximum Pressure Error:  0.29E+01 on Mesh   1 at (  26  15  10)
       ---------------------------------------------------------------
       Max CFL number:  0.78E+00 at (  26,  18,  15)
       Max divergence:  0.19E+00 at (  28,  12,   8)
       Min divergence: -0.71E-01 at (  24,  13,   9)
       Max VN number:   0.47E+00 at (  31,  20,  10)
       Total Heat Release Rate:             64.057 kW
       Radiation Loss to Boundaries:        -7.135 kW
 
       Time Step     200   October 13, 2020  17:32:40
       Step Size:    0.112E+00 s, Total Time:      22.36 s
       Pressure Iterations:      1
       Maximum Velocity Error:  0.00E+00 on Mesh   1 at (  22  21   7)
       Maximum Pressure Error:  0.97E+01 on Mesh   1 at (  26  15  10)
       ---------------------------------------------------------------
       Max CFL number:  0.84E+00 at (  30,  17,  10)
       Max divergence:  0.48E+00 at (  28,  13,   8)
       Min divergence: -0.16E+00 at (  28,   9,  10)
       Max VN number:   0.57E+00 at (  30,  17,  15)
       Total Heat Release Rate:            129.369 kW
       Radiation Loss to Boundaries:       -24.943 kW
 
       Time Step     300   October 13, 2020  17:34:28
       Step Size:    0.947E-01 s, Total Time:      33.13 s
       Pressure Iterations:      1
       Maximum Velocity Error:  0.00E+00 on Mesh   1 at (  22  21   7)
       Maximum Pressure Error:  0.16E+02 on Mesh   1 at (  26  15  10)
       ---------------------------------------------------------------
       Max CFL number:  0.82E+00 at (  22,  23,  10)
       Max divergence:  0.14E+01 at (  27,  14,   8)
       Min divergence: -0.45E+00 at (  22,  22,  10)
       Max VN number:   0.57E+00 at (  19,  18,  13)
       Total Heat Release Rate:            198.694 kW
       Radiation Loss to Boundaries:       -47.562 kW
 
       Time Step     400   October 13, 2020  17:36:15
       Step Size:    0.845E-01 s, Total Time:      42.03 s
       Pressure Iterations:      1
       Maximum Velocity Error:  0.00E+00 on Mesh   1 at (  22  21   7)
       Maximum Pressure Error:  0.21E+02 on Mesh   1 at (  31  12  15)
       ---------------------------------------------------------------
       Max CFL number:  0.88E+00 at (  20,  32,  15)
       Max divergence:  0.89E+00 at (  28,  13,   8)
       Min divergence: -0.38E+00 at (  23,  13,   9)
       Max VN number:   0.61E+00 at (  31,  12,  10)
       Total Heat Release Rate:            244.892 kW
       Radiation Loss to Boundaries:       -60.206 kW
 
       Time Step     500   October 13, 2020  17:38:02
       Step Size:    0.765E-01 s, Total Time:      49.94 s
       Pressure Iterations:      1
       Maximum Velocity Error:  0.00E+00 on Mesh   1 at (  22  21   7)
       Maximum Pressure Error:  0.29E+02 on Mesh   1 at (  20  14  15)
       ---------------------------------------------------------------
       Max CFL number:  0.84E+00 at (  20,  32,  15)
       Max divergence:  0.11E+01 at (  28,  12,   8)
       Min divergence: -0.44E+00 at (  28,   9,  10)
       Max VN number:   0.61E+00 at (  19,  14,  13)
       Total Heat Release Rate:            292.859 kW
       Radiation Loss to Boundaries:       -76.059 kW
 
       Time Step     600   October 13, 2020  17:39:50
       Step Size:    0.704E-01 s, Total Time:      57.53 s
       Pressure Iterations:      1
       Maximum Velocity Error:  0.00E+00 on Mesh   1 at (  22  21   7)
       Maximum Pressure Error:  0.32E+02 on Mesh   1 at (  20  15  15)
       ---------------------------------------------------------------
       Max CFL number:  0.83E+00 at (  20,  16,  14)
       Max divergence:  0.16E+01 at (  25,  13,   8)
       Min divergence: -0.83E+00 at (  20,  16,  13)
       Max VN number:   0.73E+00 at (  19,  16,  13)
       Total Heat Release Rate:            343.887 kW
       Radiation Loss to Boundaries:       -89.249 kW
 
       Time Step     700   October 13, 2020  17:41:35
       Step Size:    0.687E-01 s, Total Time:      64.58 s
       Pressure Iterations:      1
       Maximum Velocity Error:  0.00E+00 on Mesh   1 at (  22  21   7)
       Maximum Pressure Error:  0.18E+03 on Mesh   1 at (  27  11   8)
       ---------------------------------------------------------------
       Max CFL number:  0.88E+00 at (  23,  22,  10)
       Max divergence:  0.16E+01 at (  28,  12,   8)
       Min divergence: -0.55E+00 at (  23,  23,  10)
       Max VN number:   0.54E+00 at (  31,  11,  10)
       Total Heat Release Rate:            377.253 kW
       Radiation Loss to Boundaries:      -101.439 kW
 
       Time Step     800   October 13, 2020  17:43:19
       Step Size:    0.687E-01 s, Total Time:      71.45 s
       Pressure Iterations:      1
       Maximum Velocity Error:  0.00E+00 on Mesh   1 at (  22  21   7)
       Maximum Pressure Error:  0.67E+02 on Mesh   1 at (  31  13  15)
       ---------------------------------------------------------------
       Max CFL number:  0.86E+00 at (  20,   1,  15)
       Max divergence:  0.75E+01 at (  24,  12,   8)
       Min divergence: -0.56E+00 at (  30,  11,  10)
       Max VN number:   0.55E+00 at (  31,  12,  15)
       Total Heat Release Rate:            486.642 kW
       Radiation Loss to Boundaries:      -129.357 kW
 
       Time Step     900   October 13, 2020  17:45:04
       Step Size:    0.597E-01 s, Total Time:      78.04 s
       Pressure Iterations:      1
       Maximum Velocity Error:  0.00E+00 on Mesh   1 at (  22  21   7)
       Maximum Pressure Error:  0.11E+03 on Mesh   1 at (  31  12  15)
       ---------------------------------------------------------------
       Max CFL number:  0.82E+00 at (  31,  12,  14)
       Max divergence:  0.20E+01 at (  28,   9,   8)
       Min divergence: -0.73E+00 at (  23,  20,   9)
       Max VN number:   0.55E+00 at (  20,  15,  15)
       Total Heat Release Rate:            449.601 kW
       Radiation Loss to Boundaries:      -114.691 kW
 
       Time Step    1000   October 13, 2020  17:46:48
       Step Size:    0.597E-01 s, Total Time:      84.01 s
       Pressure Iterations:      1
       Maximum Velocity Error:  0.00E+00 on Mesh   1 at (  22  21   7)
       Maximum Pressure Error:  0.70E+02 on Mesh   1 at (  21  17   8)
       ---------------------------------------------------------------
       Max CFL number:  0.83E+00 at (  20,   1,  15)
       Max divergence:  0.35E+01 at (  28,  10,   8)
       Min divergence: -0.75E+00 at (  22,  17,   9)
       Max VN number:   0.61E+00 at (  19,  17,  13)
       Total Heat Release Rate:            536.481 kW
       Radiation Loss to Boundaries:      -144.426 kW
 
       Time Step    1100   October 13, 2020  17:48:33
       Step Size:    0.510E-01 s, Total Time:      89.64 s
       Pressure Iterations:      1
       Maximum Velocity Error:  0.00E+00 on Mesh   1 at (  22  21   7)
       Maximum Pressure Error:  0.15E+03 on Mesh   1 at (  31  11  15)
       ---------------------------------------------------------------
       Max CFL number:  0.89E+00 at (  31,  11,  12)
       Max divergence:  0.22E+01 at (  24,  13,   8)
       Min divergence: -0.76E+00 at (  30,  11,  10)
       Max VN number:   0.54E+00 at (  31,  11,  15)
       Total Heat Release Rate:            535.538 kW
       Radiation Loss to Boundaries:      -153.518 kW
 
       Time Step    1200   October 13, 2020  17:50:18
       Step Size:    0.561E-01 s, Total Time:      95.02 s
       Pressure Iterations:      1
       Maximum Velocity Error:  0.00E+00 on Mesh   1 at (  22  21   7)
       Maximum Pressure Error:  0.12E+03 on Mesh   1 at (  31  12  15)
       ---------------------------------------------------------------
       Max CFL number:  0.92E+00 at (  30,  12,  11)
       Max divergence:  0.23E+01 at (  30,  11,   9)
       Min divergence: -0.10E+01 at (  27,  17,   9)
       Max VN number:   0.61E+00 at (  30,  12,  15)
       Total Heat Release Rate:            532.420 kW
       Radiation Loss to Boundaries:      -144.801 kW
 
       Time Step    1300   October 13, 2020  17:52:03
       Step Size:    0.571E-01 s, Total Time:     100.41 s
       Pressure Iterations:      1
       Maximum Velocity Error:  0.00E+00 on Mesh   1 at (  22  21   7)
       Maximum Pressure Error:  0.11E+03 on Mesh   1 at (  21  14   8)
       ---------------------------------------------------------------
       Max CFL number:  0.88E+00 at (  28,   1,  15)
       Max divergence:  0.10E+02 at (  23,  12,   8)
       Min divergence: -0.76E+00 at (  23,  12,  10)
       Max VN number:   0.53E+00 at (  19,  15,  13)
       Total Heat Release Rate:            652.132 kW
       Radiation Loss to Boundaries:      -157.418 kW
 
       Time Step    1400   October 13, 2020  17:53:47
       Step Size:    0.402E-01 s, Total Time:     105.77 s
       Pressure Iterations:      1
       Maximum Velocity Error:  0.00E+00 on Mesh   1 at (  22  21   7)
       Maximum Pressure Error:  0.11E+03 on Mesh   1 at (  26   8  15)
       ---------------------------------------------------------------
       Max CFL number:  0.89E+00 at (  26,   8,  13)
       Max divergence:  0.37E+01 at (  25,   9,   8)
       Min divergence: -0.93E+00 at (  26,   8,  12)
       Max VN number:   0.57E+00 at (  26,   8,  15)
       Total Heat Release Rate:            639.189 kW
       Radiation Loss to Boundaries:      -182.824 kW
 
       Time Step    1500   October 13, 2020  17:55:32
       Step Size:    0.497E-01 s, Total Time:     110.97 s
       Pressure Iterations:      1
       Maximum Velocity Error:  0.00E+00 on Mesh   1 at (  22  21   7)
       Maximum Pressure Error:  0.18E+03 on Mesh   1 at (  31  13  15)
       ---------------------------------------------------------------
       Max CFL number:  0.81E+00 at (  31,  13,  13)
       Max divergence:  0.47E+01 at (  22,  15,   8)
       Min divergence: -0.82E+00 at (  28,   9,  10)
       Max VN number:   0.55E+00 at (  19,  18,  13)
       Total Heat Release Rate:            663.999 kW
       Radiation Loss to Boundaries:      -169.580 kW
 
       Time Step    1600   October 13, 2020  17:57:17
       Step Size:    0.478E-01 s, Total Time:     116.33 s
       Pressure Iterations:      1
       Maximum Velocity Error:  0.00E+00 on Mesh   1 at (  22  21   7)
       Maximum Pressure Error:  0.21E+03 on Mesh   1 at (  31  12  15)
       ---------------------------------------------------------------
       Max CFL number:  0.85E+00 at (  31,  11,  14)
       Max divergence:  0.48E+01 at (  21,  12,   8)
       Min divergence: -0.70E+00 at (  26,  10,  10)
       Max VN number:   0.51E+00 at (  31,  11,  15)
       Total Heat Release Rate:            732.400 kW
       Radiation Loss to Boundaries:      -200.816 kW
 
       Time Step    1700   October 13, 2020  17:59:03
       Step Size:    0.507E-01 s, Total Time:     121.41 s
       Pressure Iterations:      2
       Maximum Velocity Error:  0.00E+00 on Mesh   1 at (  22  21   7)
       Maximum Pressure Error:  0.32E+03 on Mesh   1 at (  28  11   8)
       ---------------------------------------------------------------
       Max CFL number:  0.83E+00 at (  27,   1,  15)
       Max divergence:  0.45E+01 at (  29,  10,   8)
       Min divergence: -0.17E+01 at (  28,  11,   9)
       Max VN number:   0.63E+00 at (  19,  14,  13)
       Total Heat Release Rate:            741.441 kW
       Radiation Loss to Boundaries:      -224.757 kW
 
       Time Step    1800   October 13, 2020  18:00:48
       Step Size:    0.484E-01 s, Total Time:     126.23 s
       Pressure Iterations:      1
       Maximum Velocity Error:  0.00E+00 on Mesh   1 at (  22  21   7)
       Maximum Pressure Error:  0.17E+03 on Mesh   1 at (  31  12  15)
       ---------------------------------------------------------------
       Max CFL number:  0.85E+00 at (  28,   1,  15)
       Max divergence:  0.44E+01 at (  28,   9,   9)
       Min divergence: -0.86E+00 at (  22,  22,  10)
       Max VN number:   0.54E+00 at (  30,  13,  15)
       Total Heat Release Rate:            731.208 kW
       Radiation Loss to Boundaries:      -220.203 kW
 
       Time Step    1900   October 13, 2020  18:02:34
       Step Size:    0.419E-01 s, Total Time:     130.90 s
       Pressure Iterations:      1
       Maximum Velocity Error:  0.00E+00 on Mesh   1 at (  21  17   7)
       Maximum Pressure Error:  0.25E+03 on Mesh   1 at (  31  11  15)
       ---------------------------------------------------------------
       Max CFL number:  0.85E+00 at (  31,  11,  11)
       Max divergence:  0.48E+01 at (  26,  13,   8)
       Min divergence: -0.13E+01 at (  22,  12,   9)
       Max VN number:   0.49E+00 at (  31,  10,  15)
       Total Heat Release Rate:            713.536 kW
       Radiation Loss to Boundaries:      -209.522 kW
 
       Time Step    2000   October 13, 2020  18:04:19
       Step Size:    0.424E-01 s, Total Time:     135.44 s
       Pressure Iterations:      1
       Maximum Velocity Error:  0.00E+00 on Mesh   1 at (  21  17   7)
       Maximum Pressure Error:  0.20E+03 on Mesh   1 at (  31  12  15)
       ---------------------------------------------------------------
       Max CFL number:  0.90E+00 at (  31,  11,  12)
       Max divergence:  0.46E+01 at (  21,  12,   8)
       Min divergence: -0.10E+01 at (  22,  18,   9)
       Max VN number:   0.49E+00 at (  30,  12,  15)
       Total Heat Release Rate:            814.860 kW
       Radiation Loss to Boundaries:      -227.172 kW
 
       Time Step    2100   October 13, 2020  18:06:06
       Step Size:    0.471E-01 s, Total Time:     139.94 s
       Pressure Iterations:      1
       Maximum Velocity Error:  0.00E+00 on Mesh   1 at (  21  17   7)
       Maximum Pressure Error:  0.17E+03 on Mesh   1 at (  22  12   8)
       ---------------------------------------------------------------
       Max CFL number:  0.87E+00 at (  28,   1,  15)
       Max divergence:  0.59E+01 at (  28,  14,   8)
       Min divergence: -0.13E+01 at (  26,   9,  10)
       Max VN number:   0.54E+00 at (  26,  10,  10)
       Total Heat Release Rate:            803.727 kW
       Radiation Loss to Boundaries:      -219.179 kW
 
       Time Step    2200   October 13, 2020  18:07:53
       Step Size:    0.277E-01 s, Total Time:     144.41 s
       Pressure Iterations:      1
       Maximum Velocity Error:  0.00E+00 on Mesh   1 at (  21  17   7)
       Maximum Pressure Error:  0.19E+03 on Mesh   1 at (  31  11  15)
       ---------------------------------------------------------------
       Max CFL number:  0.52E+00 at (  30,   1,  15)
       Max divergence:  0.69E+01 at (  28,   9,   9)
       Min divergence: -0.11E+01 at (  28,   9,  10)
       Max VN number:   0.29E+00 at (  26,  10,  10)
       Total Heat Release Rate:            816.891 kW
       Radiation Loss to Boundaries:      -218.185 kW
 
       Time Step    2300   October 13, 2020  18:09:39
       Step Size:    0.454E-01 s, Total Time:     148.51 s
       Pressure Iterations:      1
       Maximum Velocity Error:  0.00E+00 on Mesh   1 at (  21  17   7)
       Maximum Pressure Error:  0.23E+03 on Mesh   1 at (  31  12  15)
       ---------------------------------------------------------------
       Max CFL number:  0.89E+00 at (  31,  12,  12)
       Max divergence:  0.54E+01 at (  26,   9,   9)
       Min divergence: -0.12E+01 at (  30,  13,  10)
       Max VN number:   0.48E+00 at (  26,  10,  10)
       Total Heat Release Rate:            829.426 kW
       Radiation Loss to Boundaries:      -221.551 kW
 
       Time Step    2400   October 13, 2020  18:11:28
       Step Size:    0.419E-01 s, Total Time:     152.70 s
       Pressure Iterations:      1
       Maximum Velocity Error:  0.00E+00 on Mesh   1 at (  21  17   7)
       Maximum Pressure Error:  0.14E+03 on Mesh   1 at (  31  14  15)
       ---------------------------------------------------------------
       Max CFL number:  0.84E+00 at (  31,   1,  15)
       Max divergence:  0.77E+01 at (  21,  18,   8)
       Min divergence: -0.13E+01 at (  30,  11,  10)
       Max VN number:   0.52E+00 at (  31,  11,  10)
       Total Heat Release Rate:            961.768 kW
       Radiation Loss to Boundaries:      -254.732 kW
 
       Time Step    2500   October 13, 2020  18:13:15
       Step Size:    0.307E-01 s, Total Time:     156.77 s
       Pressure Iterations:      1
       Maximum Velocity Error:  0.00E+00 on Mesh   1 at (  21  17   7)
       Maximum Pressure Error:  0.25E+03 on Mesh   1 at (  24   7   8)
       ---------------------------------------------------------------
       Max CFL number:  0.68E+00 at (  24,   8,  13)
       Max divergence:  0.69E+01 at (  22,  19,   8)
       Min divergence: -0.94E+00 at (  24,   8,   8)
       Max VN number:   0.42E+00 at (  25,   9,  15)
       Total Heat Release Rate:           1012.394 kW
       Radiation Loss to Boundaries:      -305.922 kW
 
       Time Step    2600   October 13, 2020  18:15:02
       Step Size:    0.465E-01 s, Total Time:     160.87 s
       Pressure Iterations:      1
       Maximum Velocity Error:  0.00E+00 on Mesh   1 at (  21  17   7)
       Maximum Pressure Error:  0.20E+03 on Mesh   1 at (  31  13  15)
       ---------------------------------------------------------------
       Max CFL number:  0.93E+00 at (  30,  13,  11)
       Max divergence:  0.57E+01 at (  30,  13,   8)
       Min divergence: -0.11E+01 at (  28,   9,  10)
       Max VN number:   0.54E+00 at (  30,  13,  15)
       Total Heat Release Rate:            867.350 kW
       Radiation Loss to Boundaries:      -210.690 kW
 
       Time Step    2700   October 13, 2020  18:16:47
       Step Size:    0.394E-01 s, Total Time:     165.20 s
       Pressure Iterations:      1
       Maximum Velocity Error:  0.00E+00 on Mesh   1 at (  21  17   7)
       Maximum Pressure Error:  0.37E+03 on Mesh   1 at (  31  13  15)
       ---------------------------------------------------------------
       Max CFL number:  0.93E+00 at (  31,  14,  13)
       Max divergence:  0.84E+01 at (  21,  16,   8)
       Min divergence: -0.10E+01 at (  30,  14,  12)
       Max VN number:   0.49E+00 at (  30,  13,  15)
       Total Heat Release Rate:            917.449 kW
       Radiation Loss to Boundaries:      -228.993 kW
 
       Time Step    2800   October 13, 2020  18:18:34
       Step Size:    0.389E-01 s, Total Time:     169.24 s
       Pressure Iterations:     10
       Maximum Velocity Error:  0.00E+00 on Mesh   1 at (  21  17   7)
       Maximum Pressure Error:  0.86E+03 on Mesh   1 at (  28   8   8)
       ---------------------------------------------------------------
       Max CFL number:  0.94E+00 at (  28,   8,  12)
       Max divergence:  0.43E+01 at (  21,  16,   8)
       Min divergence: -0.25E+01 at (  28,   8,  11)
       Max VN number:   0.90E+00 at (  28,   8,   8)
       Total Heat Release Rate:            989.277 kW
       Radiation Loss to Boundaries:      -290.619 kW
 
       Time Step    2900   October 13, 2020  18:20:19
       Step Size:    0.376E-01 s, Total Time:     172.94 s
       Pressure Iterations:      1
       Maximum Velocity Error:  0.00E+00 on Mesh   1 at (  21  17   7)
       Maximum Pressure Error:  0.31E+03 on Mesh   1 at (  31  11  15)
       ---------------------------------------------------------------
       Max CFL number:  0.89E+00 at (  29,   1,  15)
       Max divergence:  0.55E+01 at (  24,  17,   8)
       Min divergence: -0.20E+01 at (  28,   9,  10)
       Max VN number:   0.46E+00 at (  30,  12,  15)
       Total Heat Release Rate:           1010.041 kW
       Radiation Loss to Boundaries:      -282.453 kW
 
       Time Step    3000   October 13, 2020  18:22:05
       Step Size:    0.390E-01 s, Total Time:     176.74 s
       Pressure Iterations:      1
       Maximum Velocity Error:  0.00E+00 on Mesh   1 at (  21  17   7)
       Maximum Pressure Error:  0.42E+03 on Mesh   1 at (  31  12  15)
       ---------------------------------------------------------------
       Max CFL number:  0.95E+00 at (  31,  12,  12)
       Max divergence:  0.75E+01 at (  22,  21,   8)
       Min divergence: -0.15E+01 at (  29,  11,   8)
       Max VN number:   0.55E+00 at (  30,  12,  15)
       Total Heat Release Rate:           1002.486 kW
       Radiation Loss to Boundaries:      -293.862 kW
 
       Time Step    3100   October 13, 2020  18:23:49
       Step Size:    0.347E-01 s, Total Time:     180.25 s
       Pressure Iterations:      1
       Maximum Velocity Error:  0.00E+00 on Mesh   1 at (  21  17   7)
       Maximum Pressure Error:  0.38E+03 on Mesh   1 at (  29  13   8)
       ---------------------------------------------------------------
       Max CFL number:  0.88E+00 at (  24,  15,  15)
       Max divergence:  0.81E+01 at (  30,  14,   8)
       Min divergence: -0.13E+01 at (  30,  14,  13)
       Max VN number:   0.50E+00 at (  20,  15,  15)
       Total Heat Release Rate:           1176.449 kW
       Radiation Loss to Boundaries:      -356.154 kW
 
       Time Step    3200   October 13, 2020  18:25:33
       Step Size:    0.372E-01 s, Total Time:     183.97 s
       Pressure Iterations:      1
       Maximum Velocity Error:  0.00E+00 on Mesh   1 at (  21  17   7)
       Maximum Pressure Error:  0.37E+03 on Mesh   1 at (  31  14  15)
       ---------------------------------------------------------------
       Max CFL number:  0.88E+00 at (  30,  15,  11)
       Max divergence:  0.18E+02 at (  28,  10,   8)
       Min divergence: -0.25E+01 at (  28,   9,  10)
       Max VN number:   0.52E+00 at (  30,  15,  15)
       Total Heat Release Rate:           1068.230 kW
       Radiation Loss to Boundaries:      -286.966 kW
 
       Time Step    3300   October 13, 2020  18:27:28
       Step Size:    0.372E-01 s, Total Time:     187.69 s
       Pressure Iterations:      1
       Maximum Velocity Error:  0.00E+00 on Mesh   1 at (  21  17   7)
       Maximum Pressure Error:  0.34E+03 on Mesh   1 at (  31  14  15)
       ---------------------------------------------------------------
       Max CFL number:  0.91E+00 at (  30,  15,  13)
       Max divergence:  0.89E+01 at (  21,  20,   8)
       Min divergence: -0.15E+01 at (  21,  20,   9)
       Max VN number:   0.60E+00 at (  30,  15,  15)
       Total Heat Release Rate:           1021.575 kW
       Radiation Loss to Boundaries:      -286.846 kW
 
       Time Step    3400   October 13, 2020  18:29:24
       Step Size:    0.372E-01 s, Total Time:     191.41 s
       Pressure Iterations:      1
       Maximum Velocity Error:  0.00E+00 on Mesh   1 at (  21  17   7)
       Maximum Pressure Error:  0.49E+03 on Mesh   1 at (  31  13  15)
       ---------------------------------------------------------------
       Max CFL number:  0.94E+00 at (  31,  13,  13)
       Max divergence:  0.17E+02 at (  29,  12,   8)
       Min divergence: -0.14E+01 at (  20,  20,  12)
       Max VN number:   0.57E+00 at (  20,  20,  15)
       Total Heat Release Rate:           1216.291 kW
       Radiation Loss to Boundaries:      -332.507 kW
 
       Time Step    3500   October 13, 2020  18:31:38
       Step Size:    0.360E-01 s, Total Time:     195.07 s
       Pressure Iterations:      1
       Maximum Velocity Error:  0.00E+00 on Mesh   1 at (  21  17   7)
       Maximum Pressure Error:  0.49E+03 on Mesh   1 at (  31  13  15)
       ---------------------------------------------------------------
       Max CFL number:  0.91E+00 at (  31,  12,  12)
       Max divergence:  0.99E+01 at (  22,  21,   8)
       Min divergence: -0.13E+01 at (  30,  13,  10)
       Max VN number:   0.51E+00 at (  30,  12,  15)
       Total Heat Release Rate:           1069.203 kW
       Radiation Loss to Boundaries:      -294.460 kW
 
       Time Step    3600   October 13, 2020  18:33:47
       Step Size:    0.337E-01 s, Total Time:     198.62 s
       Pressure Iterations:     10
       Maximum Velocity Error:  0.00E+00 on Mesh   1 at (  21  17   7)
       Maximum Pressure Error:  0.63E+03 on Mesh   1 at (  31  13  15)
       ---------------------------------------------------------------
       Max CFL number:  0.86E+00 at (  31,  13,  12)
       Max divergence:  0.62E+01 at (  30,  13,   8)
       Min divergence: -0.14E+01 at (  27,   9,  10)
       Max VN number:   0.49E+00 at (  30,  13,  15)
       Total Heat Release Rate:           1090.573 kW
       Radiation Loss to Boundaries:      -320.217 kW
 
       Time Step    3700   October 13, 2020  18:35:40
       Step Size:    0.308E-01 s, Total Time:     201.91 s
       Pressure Iterations:      1
       Maximum Velocity Error:  0.00E+00 on Mesh   1 at (  21  17   7)
       Maximum Pressure Error:  0.48E+03 on Mesh   1 at (  31  11  15)
       ---------------------------------------------------------------
       Max CFL number:  0.81E+00 at (  31,  11,  13)
       Max divergence:  0.80E+01 at (  30,  11,   8)
       Min divergence: -0.11E+01 at (  29,  11,   9)
       Max VN number:   0.45E+00 at (  28,  10,  10)
       Total Heat Release Rate:           1244.357 kW
       Radiation Loss to Boundaries:      -361.357 kW
 
       Time Step    3800   October 13, 2020  18:37:49
       Step Size:    0.346E-01 s, Total Time:     205.48 s
       Pressure Iterations:      3
       Maximum Velocity Error:  0.00E+00 on Mesh   1 at (  21  17   7)
       Maximum Pressure Error:  0.47E+03 on Mesh   1 at (  31  13  15)
       ---------------------------------------------------------------
       Max CFL number:  0.89E+00 at (  30,  13,  10)
       Max divergence:  0.59E+01 at (  30,  13,   8)
       Min divergence: -0.18E+01 at (  29,  15,   9)
       Max VN number:   0.47E+00 at (  31,  12,  15)
       Total Heat Release Rate:           1192.281 kW
       Radiation Loss to Boundaries:      -363.891 kW
 
       Time Step    3900   October 13, 2020  18:39:39
       Step Size:    0.392E-01 s, Total Time:     208.92 s
       Pressure Iterations:      1
       Maximum Velocity Error:  0.00E+00 on Mesh   1 at (  21  17   7)
       Maximum Pressure Error:  0.27E+03 on Mesh   1 at (  31  12  15)
       ---------------------------------------------------------------
       Max CFL number:  0.85E+00 at (  29,   1,  15)
       Max divergence:  0.15E+02 at (  21,  19,   8)
       Min divergence: -0.14E+01 at (  22,   9,  10)
       Max VN number:   0.50E+00 at (  30,  13,  15)
       Total Heat Release Rate:           1060.945 kW
       Radiation Loss to Boundaries:      -256.600 kW
 
       Time Step    4000   October 13, 2020  18:41:24
       Step Size:    0.358E-01 s, Total Time:     212.61 s
       Pressure Iterations:      1
       Maximum Velocity Error:  0.00E+00 on Mesh   1 at (  21  17   7)
       Maximum Pressure Error:  0.39E+03 on Mesh   1 at (  31  12  15)
       ---------------------------------------------------------------
       Max CFL number:  0.95E+00 at (  30,  13,  10)
       Max divergence:  0.11E+02 at (  23,  20,   8)
       Min divergence: -0.17E+01 at (  30,  14,   8)
       Max VN number:   0.50E+00 at (  30,  13,  15)
       Total Heat Release Rate:           1090.715 kW
       Radiation Loss to Boundaries:      -336.722 kW
 
       Time Step    4100   October 13, 2020  18:43:34
       Step Size:    0.333E-01 s, Total Time:     216.06 s
       Pressure Iterations:      1
       Maximum Velocity Error:  0.00E+00 on Mesh   1 at (  21  17   7)
       Maximum Pressure Error:  0.45E+03 on Mesh   1 at (  31  12  15)
       ---------------------------------------------------------------
       Max CFL number:  0.83E+00 at (  28,   1,  15)
       Max divergence:  0.64E+01 at (  30,  14,   8)
       Min divergence: -0.11E+01 at (  26,  11,   9)
       Max VN number:   0.47E+00 at (  23,  21,  10)
       Total Heat Release Rate:           1024.386 kW
       Radiation Loss to Boundaries:      -275.475 kW
 
       Time Step    4200   October 13, 2020  18:45:54
       Step Size:    0.367E-01 s, Total Time:     219.40 s
       Pressure Iterations:      1
       Maximum Velocity Error:  0.00E+00 on Mesh   1 at (  21  17   7)
       Maximum Pressure Error:  0.46E+03 on Mesh   1 at (  31  11  15)
       ---------------------------------------------------------------
       Max CFL number:  0.85E+00 at (  31,  11,  11)
       Max divergence:  0.76E+01 at (  23,  11,   8)
       Min divergence: -0.10E+01 at (  22,  22,  10)
       Max VN number:   0.51E+00 at (  30,  11,  15)
       Total Heat Release Rate:           1356.331 kW
       Radiation Loss to Boundaries:      -370.634 kW
 
       Time Step    4300   October 13, 2020  18:48:46
       Step Size:    0.329E-01 s, Total Time:     222.72 s
       Pressure Iterations:     10
       Maximum Velocity Error:  0.00E+00 on Mesh   1 at (  21  17   7)
       Maximum Pressure Error:  0.79E+03 on Mesh   1 at (  31  14  15)
       ---------------------------------------------------------------
       Max CFL number:  0.90E+00 at (  31,  13,  11)
       Max divergence:  0.93E+01 at (  30,  14,   8)
       Min divergence: -0.13E+01 at (  22,  22,  10)
       Max VN number:   0.46E+00 at (  29,  12,  10)
       Total Heat Release Rate:           1337.200 kW
       Radiation Loss to Boundaries:      -414.804 kW
 
       Time Step    4400   October 13, 2020  18:51:44
       Step Size:    0.301E-01 s, Total Time:     225.95 s
       Pressure Iterations:      2
       Maximum Velocity Error:  0.00E+00 on Mesh   1 at (  21  17   7)
       Maximum Pressure Error:  0.45E+03 on Mesh   1 at (  31  14  15)
       ---------------------------------------------------------------
       Max CFL number:  0.93E+00 at (  30,  15,   8)
       Max divergence:  0.82E+01 at (  29,  11,   8)
       Min divergence: -0.26E+01 at (  30,  15,  13)
       Max VN number:   0.48E+00 at (  31,  19,  13)
       Total Heat Release Rate:           1436.305 kW
       Radiation Loss to Boundaries:      -431.498 kW
 
       Time Step    4500   October 13, 2020  18:54:23
       Step Size:    0.325E-01 s, Total Time:     229.20 s
       Pressure Iterations:     10
       Maximum Velocity Error:  0.00E+00 on Mesh   1 at (  21  17   7)
       Maximum Pressure Error:  0.62E+03 on Mesh   1 at (  31  15  15)
       ---------------------------------------------------------------
       Max CFL number:  0.87E+00 at (  31,  14,  12)
       Max divergence:  0.10E+02 at (  30,  14,   8)
       Min divergence: -0.13E+01 at (  30,  14,  10)
       Max VN number:   0.48E+00 at (  30,  14,  15)
       Total Heat Release Rate:           1158.860 kW
       Radiation Loss to Boundaries:      -375.666 kW
 
       Time Step    4600   October 13, 2020  18:57:25
       Step Size:    0.337E-01 s, Total Time:     232.36 s
       Pressure Iterations:     10
       Maximum Velocity Error:  0.00E+00 on Mesh   1 at (  21  17   7)
       Maximum Pressure Error:  0.77E+03 on Mesh   1 at (  31  12  15)
       ---------------------------------------------------------------
       Max CFL number:  0.93E+00 at (  31,  12,  11)
       Max divergence:  0.79E+01 at (  29,  11,  10)
       Min divergence: -0.11E+01 at (  30,  12,  11)
       Max VN number:   0.49E+00 at (  31,  12,  15)
       Total Heat Release Rate:           1328.369 kW
       Radiation Loss to Boundaries:      -393.813 kW
 
       Time Step    4700   October 13, 2020  18:59:49
       Step Size:    0.341E-01 s, Total Time:     235.64 s
       Pressure Iterations:     10
       Maximum Velocity Error:  0.00E+00 on Mesh   1 at (  21  17   7)
       Maximum Pressure Error:  0.66E+03 on Mesh   1 at (  31  13  15)
       ---------------------------------------------------------------
       Max CFL number:  0.91E+00 at (  31,  13,  11)
       Max divergence:  0.12E+02 at (  28,  10,   9)
       Min divergence: -0.18E+01 at (  30,  12,   9)
       Max VN number:   0.44E+00 at (  31,  13,   8)
       Total Heat Release Rate:           1431.329 kW
       Radiation Loss to Boundaries:      -419.413 kW
 
       Time Step    4800   October 13, 2020  19:02:19
       Step Size:    0.286E-01 s, Total Time:     238.75 s
       Pressure Iterations:      2
       Maximum Velocity Error:  0.00E+00 on Mesh   1 at (  21  17   7)
       Maximum Pressure Error:  0.45E+03 on Mesh   1 at (  31  11  15)
       ---------------------------------------------------------------
       Max CFL number:  0.89E+00 at (  27,   7,  12)
       Max divergence:  0.73E+01 at (  21,  20,   8)
       Min divergence: -0.15E+01 at (  27,   9,   9)
       Max VN number:   0.39E+00 at (  26,   9,  15)
       Total Heat Release Rate:           1392.633 kW
       Radiation Loss to Boundaries:      -369.200 kW
 
       Time Step    4900   October 13, 2020  19:04:35
       Step Size:    0.339E-01 s, Total Time:     242.13 s
       Pressure Iterations:      3
       Maximum Velocity Error:  0.00E+00 on Mesh   1 at (  21  17   7)
       Maximum Pressure Error:  0.49E+03 on Mesh   1 at (  31  13  15)
       ---------------------------------------------------------------
       Max CFL number:  0.93E+00 at (  26,   8,  13)
       Max divergence:  0.92E+01 at (  30,  14,   8)
       Min divergence: -0.13E+01 at (  30,  14,  12)
       Max VN number:   0.59E+00 at (  26,   8,  15)
       Total Heat Release Rate:           1397.713 kW
       Radiation Loss to Boundaries:      -376.159 kW
 
       Time Step    5000   October 13, 2020  19:07:35
       Step Size:    0.328E-01 s, Total Time:     245.35 s
       Pressure Iterations:     10
       Maximum Velocity Error:  0.00E+00 on Mesh   1 at (  21  17   7)
       Maximum Pressure Error:  0.72E+03 on Mesh   1 at (  31  13  15)
       ---------------------------------------------------------------
       Max CFL number:  0.85E+00 at (  30,  14,  10)
       Max divergence:  0.78E+01 at (  30,  14,   8)
       Min divergence: -0.14E+01 at (  28,   9,  10)
       Max VN number:   0.47E+00 at (  31,  10,  15)
       Total Heat Release Rate:           1387.039 kW
       Radiation Loss to Boundaries:      -369.974 kW
 
       Time Step    5100   October 13, 2020  19:09:32
       Step Size:    0.293E-01 s, Total Time:     248.64 s
       Pressure Iterations:      2
       Maximum Velocity Error:  0.00E+00 on Mesh   1 at (  21  17   7)
       Maximum Pressure Error:  0.49E+03 on Mesh   1 at (  31  11  15)
       ---------------------------------------------------------------
       Max CFL number:  0.94E+00 at (  20,  18,   8)
       Max divergence:  0.11E+02 at (  20,  18,   8)
       Min divergence: -0.31E+01 at (  30,  12,   9)
       Max VN number:   0.43E+00 at (  31,  10,  15)
       Total Heat Release Rate:           1548.018 kW
       Radiation Loss to Boundaries:      -417.666 kW
 
       Time Step    5200   October 13, 2020  19:11:29
       Step Size:    0.280E-01 s, Total Time:     251.97 s
       Pressure Iterations:      1
       Maximum Velocity Error:  0.00E+00 on Mesh   1 at (  21  17   7)
       Maximum Pressure Error:  0.37E+03 on Mesh   1 at (  27  10   8)
       ---------------------------------------------------------------
       Max CFL number:  0.74E+00 at (  30,   1,  15)
       Max divergence:  0.81E+01 at (  30,  13,   8)
       Min divergence: -0.34E+01 at (  27,   8,  11)
       Max VN number:   0.48E+00 at (  27,   6,  15)
       Total Heat Release Rate:           1620.857 kW
       Radiation Loss to Boundaries:      -400.988 kW
 
       Time Step    5300   October 13, 2020  19:13:33
       Step Size:    0.348E-01 s, Total Time:     255.32 s
       Pressure Iterations:      3
       Maximum Velocity Error:  0.00E+00 on Mesh   1 at (  21  17   7)
       Maximum Pressure Error:  0.36E+03 on Mesh   1 at (  31  12  15)
       ---------------------------------------------------------------
       Max CFL number:  0.85E+00 at (  26,   9,  10)
       Max divergence:  0.66E+01 at (  22,  21,   8)
       Min divergence: -0.19E+01 at (  26,   9,   9)
       Max VN number:   0.83E+00 at (  26,   9,   8)
       Total Heat Release Rate:           1428.842 kW
       Radiation Loss to Boundaries:      -410.896 kW
 
       Time Step    5400   October 13, 2020  19:15:46
       Step Size:    0.357E-01 s, Total Time:     258.84 s
       Pressure Iterations:      1
       Maximum Velocity Error:  0.00E+00 on Mesh   1 at (  21  17   7)
       Maximum Pressure Error:  0.37E+03 on Mesh   1 at (  31  15  15)
       ---------------------------------------------------------------
       Max CFL number:  0.86E+00 at (  28,   9,  10)
       Max divergence:  0.93E+01 at (  21,  11,   8)
       Min divergence: -0.15E+01 at (  28,   9,  11)
       Max VN number:   0.51E+00 at (  28,   9,  10)
       Total Heat Release Rate:           1245.441 kW
       Radiation Loss to Boundaries:      -306.871 kW
 
       Time Step    5500   October 13, 2020  19:18:20
       Step Size:    0.310E-01 s, Total Time:     261.97 s
       Pressure Iterations:     10
       Maximum Velocity Error:  0.00E+00 on Mesh   1 at (  21  17   7)
       Maximum Pressure Error:  0.82E+03 on Mesh   1 at (  31  11  15)
       ---------------------------------------------------------------
       Max CFL number:  0.90E+00 at (  31,  11,  12)
       Max divergence:  0.13E+02 at (  30,  11,   8)
       Min divergence: -0.21E+01 at (  30,  12,   9)
       Max VN number:   0.44E+00 at (  31,  11,  15)
       Total Heat Release Rate:           1434.484 kW
       Radiation Loss to Boundaries:      -329.502 kW
 
       Time Step    5600   October 13, 2020  19:21:32
       Step Size:    0.331E-01 s, Total Time:     265.24 s
       Pressure Iterations:     10
       Maximum Velocity Error:  0.00E+00 on Mesh   1 at (  21  17   7)
       Maximum Pressure Error:  0.61E+03 on Mesh   1 at (  31  15  15)
       ---------------------------------------------------------------
       Max CFL number:  0.90E+00 at (  30,  13,  11)
       Max divergence:  0.10E+02 at (  30,  14,   8)
       Min divergence: -0.13E+01 at (  30,  15,   9)
       Max VN number:   0.50E+00 at (  20,  12,  15)
       Total Heat Release Rate:           1340.655 kW
       Radiation Loss to Boundaries:      -369.819 kW
 
       Time Step    5700   October 13, 2020  19:24:12
       Step Size:    0.331E-01 s, Total Time:     268.54 s
       Pressure Iterations:     10
       Maximum Velocity Error:  0.00E+00 on Mesh   1 at (  21  17   7)
       Maximum Pressure Error:  0.57E+03 on Mesh   1 at (  31  11  15)
       ---------------------------------------------------------------
       Max CFL number:  0.96E+00 at (  31,  12,  13)
       Max divergence:  0.12E+02 at (  23,  12,   8)
       Min divergence: -0.14E+01 at (  30,  13,  13)
       Max VN number:   0.49E+00 at (  30,  12,  15)
       Total Heat Release Rate:           1379.999 kW
       Radiation Loss to Boundaries:      -365.520 kW
 
       Time Step    5800   October 13, 2020  19:27:04
       Step Size:    0.295E-01 s, Total Time:     271.82 s
       Pressure Iterations:      1
       Maximum Velocity Error:  0.00E+00 on Mesh   1 at (  21  17   7)
       Maximum Pressure Error:  0.42E+03 on Mesh   1 at (  23  21   8)
       ---------------------------------------------------------------
       Max CFL number:  0.96E+00 at (  30,  12,   8)
       Max divergence:  0.13E+02 at (  22,  20,   8)
       Min divergence: -0.21E+01 at (  30,  14,   9)
       Max VN number:   0.38E+00 at (  30,  12,  15)
       Total Heat Release Rate:           1546.923 kW
       Radiation Loss to Boundaries:      -355.780 kW
 
       Time Step    5900   October 13, 2020  19:29:46
       Step Size:    0.342E-01 s, Total Time:     275.01 s
       Pressure Iterations:      1
       Maximum Velocity Error:  0.00E+00 on Mesh   1 at (  21  17   7)
       Maximum Pressure Error:  0.41E+03 on Mesh   1 at (  31  12  15)
       ---------------------------------------------------------------
       Max CFL number:  0.88E+00 at (  29,   1,  15)
       Max divergence:  0.12E+02 at (  30,  11,   8)
       Min divergence: -0.13E+01 at (  30,  12,   9)
       Max VN number:   0.53E+00 at (  28,   8,  15)
       Total Heat Release Rate:           1472.558 kW
       Radiation Loss to Boundaries:      -392.866 kW
 
       Time Step    6000   October 13, 2020  19:32:21
       Step Size:    0.296E-01 s, Total Time:     278.26 s
       Pressure Iterations:     10
       Maximum Velocity Error:  0.00E+00 on Mesh   1 at (  21  17   7)
       Maximum Pressure Error:  0.11E+04 on Mesh   1 at (  28   9   8)
       ---------------------------------------------------------------
       Max CFL number:  0.87E+00 at (  29,  13,  10)
       Max divergence:  0.11E+02 at (  26,  21,   8)
       Min divergence: -0.61E+01 at (  30,  13,  10)
       Max VN number:   0.76E+00 at (  29,  13,  10)
       Total Heat Release Rate:           1562.595 kW
       Radiation Loss to Boundaries:      -412.400 kW
 
