
 Fire Dynamics Simulator

 Current Date     : October 13, 2020  17:29:27
 Revision         : FDS6.7.5-254-g2178300-master
 Revision Date    : Fri Oct 9 15:16:47 2020 -0400
 Compiler         : Intel ifort 18.0.1
 Compilation Date : Oct 12, 2020 10:43:49

 MPI Enabled;    Number of MPI Processes:       2
 OpenMP Enabled; Number of OpenMP Threads:      4

 MPI version: 3.1
 MPI library version: Intel(R) MPI Library 2018 Update 1 for Linux* OS


 Job TITLE        : 
 Job ID string    : uglmat_mesh2_solid


 Grid Dimensions, Mesh     1

   Cells in the X Direction            78
   Cells in the Y Direction            60
   Cells in the Z Direction            40
   Number of Grid Cells            187200


 Physical Dimensions, Mesh     1

   Length (m)                      15.600
   Width  (m)                      12.000
   Height (m)                       8.000
   Initial Time Step (s)            0.112

 Grid Dimensions, Mesh     2

   Cells in the X Direction            90
   Cells in the Y Direction            60
   Cells in the Z Direction            40
   Number of Grid Cells            216000


 Physical Dimensions, Mesh     2

   Length (m)                      18.000
   Width  (m)                      12.000
   Height (m)                       8.000
   Initial Time Step (s)            0.112

Total Number of Grid Cells        403200


 Miscellaneous Parameters

   Simulation Start Time (s)          0.0
   Simulation End Time (s)         5400.0
   LES Calculation
   Eddy Viscosity:           Deardorff Model (C_DEARDORFF = 0.10)
   Near-wall Eddy Viscosity: Smagorinsky with Van Driest damping (C_SMAGORINSKY = 0.20)
   Turbulent Prandtl Number:         0.50
   Turbulent Schmidt Number:         0.50
   Ambient Temperature (C):         20.00


 Mass Fraction Transformation Matrix to Convert Species Mixtures (Columns) to Primitive Species (Rows)

                         AIR       REAC_FUE  PRODUCTS
   REAC_FUEL             0.000000  1.000000  0.000000
   NITROGEN              0.762470  0.000000  0.702658
   OXYGEN                0.230997  0.000000  0.000000
   CARBON DIOXIDE        0.000591  0.000000  0.213555
   CARBON MONOXIDE       0.000000  0.000000  0.000000
   WATER VAPOR           0.005941  0.000000  0.076457
   SOOT                  0.000000  0.000000  0.007330
   HYDROGEN              0.000000  0.000000  0.000000


 Primitive Species Information

   REAC_FUEL
   Gas Species
   Molecular Weight (g/mol)            14.95845
   Ambient Density (kg/m^3)            0.622
   Enthalpy of Formation (J/kg)       -9.27E+06

   NITROGEN
   Gas Species
   Molecular Weight (g/mol)            28.01340
   Ambient Density (kg/m^3)            1.165
   Enthalpy of Formation (J/kg)        0.00E+00

   OXYGEN
   Gas Species
   Molecular Weight (g/mol)            31.99880
   Ambient Density (kg/m^3)            1.330
   Enthalpy of Formation (J/kg)        0.00E+00

   CARBON DIOXIDE
   Gas Species
   Molecular Weight (g/mol)            44.00950
   Ambient Density (kg/m^3)            1.830
   Enthalpy of Formation (J/kg)       -8.94E+06

   CARBON MONOXIDE
   Gas Species
   Molecular Weight (g/mol)            28.01010
   Ambient Density (kg/m^3)            1.164
   Enthalpy of Formation (J/kg)       -3.95E+06

   WATER VAPOR
   Gas Species
   Molecular Weight (g/mol)            18.01528
   Ambient Density (kg/m^3)            0.749
   Enthalpy of Formation (J/kg)       -1.34E+07

   SOOT
   Gas Species
   Molecular Weight (g/mol)            10.91042
   Ambient Density (kg/m^3)            0.454
   Enthalpy of Formation (J/kg)        0.00E+00

   HYDROGEN
   Gas Species
   Molecular Weight (g/mol)             2.01588
   Ambient Density (kg/m^3)            0.084
   Enthalpy of Formation (J/kg)        0.00E+00


 Tracked (Lumped) Species Information

   AIR
   Molecular Weight (g/mol)            28.75199
   Ambient Density (kg/m^3)            1.195
   Initial Mass Fraction               1.000
   Enthalpy of Formation (J/kg)     -8.50E+04

   Sub Species                    Mass Fraction     Mole Fraction
   NITROGEN                       7.624701E-01      7.825730E-01
   OXYGEN                         2.309974E-01      2.075589E-01
   CARBON DIOXIDE                 5.914651E-04      3.864120E-04
   WATER VAPOR                    5.940984E-03      9.481679E-03
 
     Viscosity (kg/m/s) Ambient,  293 K:  1.80E-05
                                  500 K:  2.61E-05
                                 1000 K:  4.13E-05
                                 1500 K:  5.37E-05
   Therm. Cond. (W/m/K) Ambient,  293 K:  2.56E-02
                                  500 K:  3.81E-02
                                 1000 K:  6.69E-02
                                 1500 K:  9.25E-02
        Enthalpy (J/kg) Ambient,  293 K: -9.01E+04
                                  500 K:  1.22E+05
                                 1000 K:  6.72E+05
                                 1500 K:  1.27E+06
    Spec. Heat (J/kg/K) Ambient,  293 K:  1.02E+03
                                  500 K:  1.04E+03
                                 1000 K:  1.16E+03
                                 1500 K:  1.23E+03
   Diff. Coeff. (m^2/s) Ambient,  293 K:  1.99E-05
                                  500 K:  4.96E-05
                                 1000 K:  1.58E-04
                                 1500 K:  3.09E-04

   REAC_FUEL
   Molecular Weight (g/mol)            14.95845
   Ambient Density (kg/m^3)            0.622
   Initial Mass Fraction               0.000
   Enthalpy of Formation (J/kg)     -9.27E+06

   Sub Species                    Mass Fraction     Mole Fraction
   REAC_FUEL                      1.000000E+00      1.000000E+00
 
     Viscosity (kg/m/s) Ambient,  293 K:  1.27E-05
                                  500 K:  1.84E-05
                                 1000 K:  2.89E-05
                                 1500 K:  3.75E-05
   Therm. Cond. (W/m/K) Ambient,  293 K:  3.48E-02
                                  500 K:  5.03E-02
                                 1000 K:  7.91E-02
                                 1500 K:  1.03E-01
        Enthalpy (J/kg) Ambient,  293 K: -9.28E+06
                                  500 K: -8.87E+06
                                 1000 K: -7.90E+06
                                 1500 K: -6.93E+06
    Spec. Heat (J/kg/K) Ambient,  293 K:  1.95E+03
                                  500 K:  1.95E+03
                                 1000 K:  1.95E+03
                                 1500 K:  1.95E+03
   Diff. Coeff. (m^2/s) Ambient,  293 K:  2.38E-05
                                  500 K:  5.91E-05
                                 1000 K:  1.88E-04
                                 1500 K:  3.68E-04

   PRODUCTS
   Molecular Weight (g/mol)            28.69337
   Ambient Density (kg/m^3)            1.193
   Initial Mass Fraction               0.000
   Enthalpy of Formation (J/kg)     -2.94E+06

   Sub Species                    Mass Fraction     Mole Fraction
   NITROGEN                       7.026583E-01      7.197139E-01
   CARBON DIOXIDE                 2.135546E-01      1.392336E-01
   CARBON MONOXIDE                0.000000E+00      0.000000E+00
   WATER VAPOR                    7.645708E-02      1.217750E-01
   SOOT                           7.330093E-03      1.927744E-02
 
     Viscosity (kg/m/s) Ambient,  293 K:  1.62E-05
                                  500 K:  2.40E-05
                                 1000 K:  3.89E-05
                                 1500 K:  5.12E-05
   Therm. Cond. (W/m/K) Ambient,  293 K:  2.32E-02
                                  500 K:  3.61E-02
                                 1000 K:  6.68E-02
                                 1500 K:  9.51E-02
        Enthalpy (J/kg) Ambient,  293 K: -2.94E+06
                                  500 K: -2.72E+06
                                 1000 K: -2.12E+06
                                 1500 K: -1.45E+06
    Spec. Heat (J/kg/K) Ambient,  293 K:  1.06E+03
                                  500 K:  1.12E+03
                                 1000 K:  1.27E+03
                                 1500 K:  1.37E+03
   Diff. Coeff. (m^2/s) Ambient,  293 K:  1.95E-05
                                  500 K:  4.92E-05
                                 1000 K:  1.58E-04
                                 1500 K:  3.11E-04


 Gas Phase Reaction Information

   Mischbrandlast aus:		40% Polyethylen,30% Styropor, 30% Polyurethan

   Reaction ID:  Reaction1

   Fuel                                           Heat of Combustion (kJ/kg)
   REAC_FUEL                                                      25820.0000

   Stoichiometry

   Primitive Species Stoich. Coeff.
   Species ID                                                          Molar
   REAC_FUEL                                                       -1.000000
   NITROGEN                                                         0.015000
   OXYGEN                                                          -1.217862
   CARBON DIOXIDE                                                   0.888947
   WATER VAPOR                                                      0.723830
   SOOT                                                             0.123392

   Tracked (Lumped) Species Stoich. Coeff.
   Species ID                                             Molar         Mass
   AIR                                                -5.867550   -11.278153
   REAC_FUEL                                          -1.000000    -1.000000
   PRODUCTS                                            6.400858    12.278153

   Reaction Kinetics

   Arrhenius Parameters
   Pre-exponential:    Infinite
   Activation Energy:  N/A

   ODE Solver:  EXPLICIT EULER
   Extinction Model:  EXTINCTION 2
   Auto-Ignition Temperature (K):       0.0
   Critical Flame Temperature (K):   1700.2


 Material Information

   1 CONCRETE                                                    
     Stahlbeton C30-C37 WU
     Emissivity                      0.900
     Density (kg/m3)                2400.0
     Specific Heat (kJ/kg/K)      1.00E+00
     Conductivity (W/m/K)          2.10E+00

   2 STEEL                                                       
     Drysdale, Intro to Fire Dynamics - ATF NIST Multi-Floor Validation
     Emissivity                     95.000
     Density (kg/m3)                7850.0
     Specific Heat (kJ/kg/K)      4.60E-01
     Conductivity (W/m/K)          4.58E+01

   3 STEEL03                                                     
     Drysdale, Intro to Fire Dynamics - ATF NIST Multi-Floor Validation
     Emissivity                      0.950
     Density (kg/m3)                7850.0
     Specific Heat (kJ/kg/K)      4.60E-01
     Conductivity (W/m/K)          4.58E+01


 Surface Conditions

   0 INERT (DEFAULT)

   1 ADIABATIC

   2 BETON
     Material List
          1  CONCRETE
     Layer  1
        Thickness   (m):  0.10000
        Density (kg/m3):  2400.00
        CONCRETE, Mass fraction:    1.00
     Total surface density   240.000 kg/m2
     Reaction products considered from the first  0.50 layers.
     Solid Phase Node, Layer, Coordinates(m):
                    0      1       0.0000000
                    1      1       0.0007937
                    2      1       0.0023810
                    3      1       0.0055556
                    4      1       0.0119048
                    5      1       0.0246032
                    6      1       0.0500000
                    7      1       0.0753968
                    8      1       0.0880952
                    9      1       0.0944444
                   10      1       0.0976190
                   11      1       0.0992063
                   12      1       0.1000000
     Exposed Backing

   3 STAHL
     Material List
          1  STEEL
     Layer  1
        Thickness   (m):  0.05000
        Density (kg/m3):  7850.00
        STEEL, Mass fraction:    1.00
     Total surface density   392.500 kg/m2
     Reaction products considered from the first  0.50 layers.
     Solid Phase Node, Layer, Coordinates(m):
                    0      1       0.0000000
                    1      1       0.0022727
                    2      1       0.0068182
                    3      1       0.0159091
                    4      1       0.0340909
                    5      1       0.0431818
                    6      1       0.0477273
                    7      1       0.0500000
     Exposed Backing

   4 CAR_BODY02
     Properties completely fabricated
     Material List
          1  STEEL03
     Layer  1
        Thickness   (m):  0.00120
        Density (kg/m3):  7850.00
        STEEL03, Mass fraction:    1.00
     Total surface density     9.420 kg/m2
     Reaction products considered from the first  0.50 layers.
     Solid Phase Node, Layer, Coordinates(m):
                    0      1       0.0000000
                    1      1       0.0012000
     Exposed Backing

   5 BURNER1_PKW1
     HRR Per Unit Area (kW/m2)       1921.3
     REAC_FUEL Mass Flux (kg/s/m2)   7.44E-02

   6 BURNER2_VAN
     HRR Per Unit Area (kW/m2)       3846.2
     REAC_FUEL Mass Flux (kg/s/m2)   1.49E-01

   7 BURNER3_PKW2
     HRR Per Unit Area (kW/m2)       1921.3
     REAC_FUEL Mass Flux (kg/s/m2)   7.44E-02

   8 BURNER4_PKW3
     HRR Per Unit Area (kW/m2)       1921.3
     REAC_FUEL Mass Flux (kg/s/m2)   7.44E-02

   9 OPEN
     Passive Vent to Atmosphere

  10 MIRROR
     Symmetry Plane

  11 INTERPOLATED

  12 PERIODIC

  13 HVAC

  14 MASSLESS TRACER

  15 DROPLET

  16 EVACUATION_OUTFLOW
     Normal Velocity (m/s)         0.000

  17 MASSLESS TARGET

  18 PERIODIC FLOW ONLY


 Cut-off Density and Temperature

    Minimum Temperature:   -10.0 C
    Maximum Temperature:  2726.8 C
    Minimum Density:  1.195E-01 kg/m3
    Maximum Density:  2.663E+00 kg/m3


 Device Coordinates

     1 Coords:     38.100000     16.500000      1.500000, Make: null, ID: SZ2_SM_-3/0_2_110, Quantity: ADIABATIC SURFACE TEMPERATURE
     2 Coords:     38.300000     16.700000      1.500000, Make: null, ID: SZ2_SM_-3/0_3_110, Quantity: ADIABATIC SURFACE TEMPERATURE
     3 Coords:     37.900000     16.700000      1.500000, Make: null, ID: SZ2_SM_-3/0_4_110, Quantity: ADIABATIC SURFACE TEMPERATURE
     4 Coords:     38.100000     16.500000      1.700000, Make: null, ID: SZ2_SM_-3/0_2_130, Quantity: ADIABATIC SURFACE TEMPERATURE
     5 Coords:     38.300000     16.700000      1.700000, Make: null, ID: SZ2_SM_-3/0_3_130, Quantity: ADIABATIC SURFACE TEMPERATURE
     6 Coords:     37.900000     16.700000      1.700000, Make: null, ID: SZ2_SM_-3/0_4_130, Quantity: ADIABATIC SURFACE TEMPERATURE
     7 Coords:     38.100000     16.900000      1.900000, Make: null, ID: SZ2_SM_-3/0_1_150, Quantity: ADIABATIC SURFACE TEMPERATURE
     8 Coords:     38.100000     16.500000      1.900000, Make: null, ID: SZ2_SM_-3/0_2_150, Quantity: ADIABATIC SURFACE TEMPERATURE
     9 Coords:     38.300000     16.700000      1.900000, Make: null, ID: SZ2_SM_-3/0_3_150, Quantity: ADIABATIC SURFACE TEMPERATURE
    10 Coords:     37.900000     16.700000      1.900000, Make: null, ID: SZ2_SM_-3/0_4_150, Quantity: ADIABATIC SURFACE TEMPERATURE
    11 Coords:     38.100000     16.900000      2.700000, Make: null, ID: SZ2_SM_-3/0_1_230, Quantity: ADIABATIC SURFACE TEMPERATURE
    12 Coords:     38.300000     16.700000      2.700000, Make: null, ID: SZ2_SM_-3/0_3_230, Quantity: ADIABATIC SURFACE TEMPERATURE
    13 Coords:     37.900000     16.700000      2.700000, Make: null, ID: SZ2_SM_-3/0_4_230, Quantity: ADIABATIC SURFACE TEMPERATURE
    14 Coords:     38.100000     16.900000      3.300000, Make: null, ID: SZ2_SM_-3/0_1_290, Quantity: ADIABATIC SURFACE TEMPERATURE
    15 Coords:     38.100000     16.500000      3.300000, Make: null, ID: SZ2_SM_-3/0_2_290, Quantity: ADIABATIC SURFACE TEMPERATURE
    16 Coords:     38.100000     16.900000      3.500000, Make: null, ID: SZ2_SM_-3/0_1_310, Quantity: ADIABATIC SURFACE TEMPERATURE
    17 Coords:     38.100000     16.500000      3.500000, Make: null, ID: SZ2_SM_-3/0_2_310, Quantity: ADIABATIC SURFACE TEMPERATURE
    18 Coords:     38.100000     16.900000      3.700000, Make: null, ID: SZ2_SM_-3/0_1_330, Quantity: ADIABATIC SURFACE TEMPERATURE
    19 Coords:     38.100000     16.500000      3.700000, Make: null, ID: SZ2_SM_-3/0_2_330, Quantity: ADIABATIC SURFACE TEMPERATURE
    20 Coords:     38.100000     16.500000      4.300000, Make: null, ID: SZ2_SM_-3/0_2_390, Quantity: ADIABATIC SURFACE TEMPERATURE
    21 Coords:     40.700000     16.500000      1.500000, Make: null, ID: SZ2_SM_-2/0_2_110, Quantity: ADIABATIC SURFACE TEMPERATURE
    22 Coords:     40.900000     16.700000      1.500000, Make: null, ID: SZ2_SM_-2/0_3_110, Quantity: ADIABATIC SURFACE TEMPERATURE
    23 Coords:     40.500000     16.700000      1.500000, Make: null, ID: SZ2_SM_-2/0_4_110, Quantity: ADIABATIC SURFACE TEMPERATURE
    24 Coords:     40.700000     16.500000      1.700000, Make: null, ID: SZ2_SM_-2/0_2_130, Quantity: ADIABATIC SURFACE TEMPERATURE
    25 Coords:     40.900000     16.700000      1.700000, Make: null, ID: SZ2_SM_-2/0_3_130, Quantity: ADIABATIC SURFACE TEMPERATURE
    26 Coords:     40.500000     16.700000      1.700000, Make: null, ID: SZ2_SM_-2/0_4_130, Quantity: ADIABATIC SURFACE TEMPERATURE
    27 Coords:     40.700000     16.900000      1.900000, Make: null, ID: SZ2_SM_-2/0_1_150, Quantity: ADIABATIC SURFACE TEMPERATURE
    28 Coords:     40.700000     16.500000      1.900000, Make: null, ID: SZ2_SM_-2/0_2_150, Quantity: ADIABATIC SURFACE TEMPERATURE
    29 Coords:     40.900000     16.700000      1.900000, Make: null, ID: SZ2_SM_-2/0_3_150, Quantity: ADIABATIC SURFACE TEMPERATURE
    30 Coords:     40.500000     16.700000      1.900000, Make: null, ID: SZ2_SM_-2/0_4_150, Quantity: ADIABATIC SURFACE TEMPERATURE
    31 Coords:     40.700000     16.900000      2.700000, Make: null, ID: SZ2_SM_-2/0_1_230, Quantity: ADIABATIC SURFACE TEMPERATURE
    32 Coords:     40.900000     16.700000      2.700000, Make: null, ID: SZ2_SM_-2/0_3_230, Quantity: ADIABATIC SURFACE TEMPERATURE
    33 Coords:     40.500000     16.700000      2.700000, Make: null, ID: SZ2_SM_-2/0_4_230, Quantity: ADIABATIC SURFACE TEMPERATURE
    34 Coords:     40.700000     16.900000      3.300000, Make: null, ID: SZ2_SM_-2/0_1_290, Quantity: ADIABATIC SURFACE TEMPERATURE
    35 Coords:     40.700000     16.500000      3.300000, Make: null, ID: SZ2_SM_-2/0_2_290, Quantity: ADIABATIC SURFACE TEMPERATURE
    36 Coords:     40.700000     16.900000      3.500000, Make: null, ID: SZ2_SM_-2/0_1_310, Quantity: ADIABATIC SURFACE TEMPERATURE
    37 Coords:     40.700000     16.500000      3.500000, Make: null, ID: SZ2_SM_-2/0_2_310, Quantity: ADIABATIC SURFACE TEMPERATURE
    38 Coords:     40.700000     16.900000      3.700000, Make: null, ID: SZ2_SM_-2/0_1_330, Quantity: ADIABATIC SURFACE TEMPERATURE
    39 Coords:     40.700000     16.500000      3.700000, Make: null, ID: SZ2_SM_-2/0_2_330, Quantity: ADIABATIC SURFACE TEMPERATURE
    40 Coords:     40.700000     16.500000      4.300000, Make: null, ID: SZ2_SM_-2/0_2_390, Quantity: ADIABATIC SURFACE TEMPERATURE
    41 Coords:     43.100000     16.500000      1.500000, Make: null, ID: SZ2_SM_-1/0_2_110, Quantity: ADIABATIC SURFACE TEMPERATURE
    42 Coords:     42.900000     16.700000      1.500000, Make: null, ID: SZ2_SM_-1/0_4_110, Quantity: ADIABATIC SURFACE TEMPERATURE
    43 Coords:     43.300000     16.700000      1.500000, Make: null, ID: SZ2_SM_-1/0_3_110, Quantity: ADIABATIC SURFACE TEMPERATURE
    44 Coords:     43.100000     16.500000      1.700000, Make: null, ID: SZ2_SM_-1/0_2_130, Quantity: ADIABATIC SURFACE TEMPERATURE
    45 Coords:     43.300000     16.700000      1.700000, Make: null, ID: SZ2_SM_-1/0_3_130, Quantity: ADIABATIC SURFACE TEMPERATURE
    46 Coords:     42.900000     16.700000      1.700000, Make: null, ID: SZ2_SM_-1/0_4_130, Quantity: ADIABATIC SURFACE TEMPERATURE
    47 Coords:     43.100000     16.900000      1.900000, Make: null, ID: SZ2_SM_-1/0_1_150, Quantity: ADIABATIC SURFACE TEMPERATURE
    48 Coords:     43.100000     16.500000      1.900000, Make: null, ID: SZ2_SM_-1/0_2_150, Quantity: ADIABATIC SURFACE TEMPERATURE
    49 Coords:     43.300000     16.700000      1.900000, Make: null, ID: SZ2_SM_-1/0_3_150, Quantity: ADIABATIC SURFACE TEMPERATURE
    50 Coords:     42.900000     16.700000      1.900000, Make: null, ID: SZ2_SM_-1/0_4_150, Quantity: ADIABATIC SURFACE TEMPERATURE
    51 Coords:     43.100000     16.900000      2.700000, Make: null, ID: SZ2_SM_-1/0_1_230, Quantity: ADIABATIC SURFACE TEMPERATURE
    52 Coords:     43.300000     16.700000      2.700000, Make: null, ID: SZ2_SM_-1/0_3_230, Quantity: ADIABATIC SURFACE TEMPERATURE
    53 Coords:     42.900000     16.700000      2.700000, Make: null, ID: SZ2_SM_-1/0_4_230, Quantity: ADIABATIC SURFACE TEMPERATURE
    54 Coords:     43.100000     16.900000      3.300000, Make: null, ID: SZ2_SM_-1/0_1_290, Quantity: ADIABATIC SURFACE TEMPERATURE
    55 Coords:     43.100000     16.500000      3.300000, Make: null, ID: SZ2_SM_-1/0_2_290, Quantity: ADIABATIC SURFACE TEMPERATURE
    56 Coords:     43.100000     16.900000      3.500000, Make: null, ID: SZ2_SM_-1/0_1_310, Quantity: ADIABATIC SURFACE TEMPERATURE
    57 Coords:     43.100000     16.500000      3.500000, Make: null, ID: SZ2_SM_-1/0_2_310, Quantity: ADIABATIC SURFACE TEMPERATURE
    58 Coords:     43.100000     16.900000      3.700000, Make: null, ID: SZ2_SM_-1/0_1_330, Quantity: ADIABATIC SURFACE TEMPERATURE
    59 Coords:     43.100000     16.500000      3.700000, Make: null, ID: SZ2_SM_-1/0_2_330, Quantity: ADIABATIC SURFACE TEMPERATURE
    60 Coords:     43.100000     16.500000      4.300000, Make: null, ID: SZ2_SM_-1/0_2_390, Quantity: ADIABATIC SURFACE TEMPERATURE
    61 Coords:     45.700000     16.500000      1.500000, Make: null, ID: SZ2_SM_1/0_2_110, Quantity: ADIABATIC SURFACE TEMPERATURE
    62 Coords:     45.900000     16.700000      1.500000, Make: null, ID: SZ2_SM_1/0_3_110, Quantity: ADIABATIC SURFACE TEMPERATURE
    63 Coords:     45.500000     16.700000      1.500000, Make: null, ID: SZ2_SM_1/0_4_110, Quantity: ADIABATIC SURFACE TEMPERATURE
    64 Coords:     45.700000     16.500000      1.700000, Make: null, ID: SZ2_SM_1/0_2_130, Quantity: ADIABATIC SURFACE TEMPERATURE
    65 Coords:     45.900000     16.700000      1.700000, Make: null, ID: SZ2_SM_1/0_3_130, Quantity: ADIABATIC SURFACE TEMPERATURE
    66 Coords:     45.500000     16.700000      1.700000, Make: null, ID: SZ2_SM_1/0_4_130, Quantity: ADIABATIC SURFACE TEMPERATURE
    67 Coords:     45.700000     16.900000      1.900000, Make: null, ID: SZ2_SM_1/0_1_150, Quantity: ADIABATIC SURFACE TEMPERATURE
    68 Coords:     45.700000     16.500000      1.900000, Make: null, ID: SZ2_SM_1/0_2_150, Quantity: ADIABATIC SURFACE TEMPERATURE
    69 Coords:     45.900000     16.700000      1.900000, Make: null, ID: SZ2_SM_1/0_3_150, Quantity: ADIABATIC SURFACE TEMPERATURE
    70 Coords:     45.500000     16.700000      1.900000, Make: null, ID: SZ2_SM_1/0_4_150, Quantity: ADIABATIC SURFACE TEMPERATURE
    71 Coords:     45.700000     16.900000      2.700000, Make: null, ID: SZ2_SM_1/0_1_230, Quantity: ADIABATIC SURFACE TEMPERATURE
    72 Coords:     45.900000     16.700000      2.700000, Make: null, ID: SZ2_SM_1/0_3_230, Quantity: ADIABATIC SURFACE TEMPERATURE
    73 Coords:     45.500000     16.700000      2.700000, Make: null, ID: SZ2_SM_1/0_4_230, Quantity: ADIABATIC SURFACE TEMPERATURE
    74 Coords:     45.700000     16.900000      3.300000, Make: null, ID: SZ2_SM_1/0_1_290, Quantity: ADIABATIC SURFACE TEMPERATURE
    75 Coords:     45.700000     16.500000      3.300000, Make: null, ID: SZ2_SM_1/0_2_290, Quantity: ADIABATIC SURFACE TEMPERATURE
    76 Coords:     45.700000     16.900000      3.500000, Make: null, ID: SZ2_SM_1/0_1_310, Quantity: ADIABATIC SURFACE TEMPERATURE
    77 Coords:     45.700000     16.500000      3.500000, Make: null, ID: SZ2_SM_1/0_2_310, Quantity: ADIABATIC SURFACE TEMPERATURE
    78 Coords:     45.700000     16.900000      3.700000, Make: null, ID: SZ2_SM_1/0_1_330, Quantity: ADIABATIC SURFACE TEMPERATURE
    79 Coords:     45.700000     16.500000      3.700000, Make: null, ID: SZ2_SM_1/0_2_330, Quantity: ADIABATIC SURFACE TEMPERATURE
    80 Coords:     45.700000     16.500000      4.300000, Make: null, ID: SZ2_SM_1/0_2_390, Quantity: ADIABATIC SURFACE TEMPERATURE
    81 Coords:     48.100000     16.500000      1.500000, Make: null, ID: SZ2_SM_2/0_2_110, Quantity: ADIABATIC SURFACE TEMPERATURE
    82 Coords:     48.300000     16.700000      1.500000, Make: null, ID: SZ2_SM_2/0_3_110, Quantity: ADIABATIC SURFACE TEMPERATURE
    83 Coords:     47.900000     16.700000      1.500000, Make: null, ID: SZ2_SM_2/0_4_110, Quantity: ADIABATIC SURFACE TEMPERATURE
    84 Coords:     48.100000     16.500000      1.700000, Make: null, ID: SZ2_SM_2/0_2_130, Quantity: ADIABATIC SURFACE TEMPERATURE
    85 Coords:     48.300000     16.700000      1.700000, Make: null, ID: SZ2_SM_2/0_3_130, Quantity: ADIABATIC SURFACE TEMPERATURE
    86 Coords:     47.900000     16.700000      1.700000, Make: null, ID: SZ2_SM_2/0_4_130, Quantity: ADIABATIC SURFACE TEMPERATURE
    87 Coords:     48.100000     16.900000      1.900000, Make: null, ID: SZ2_SM_2/0_1_150, Quantity: ADIABATIC SURFACE TEMPERATURE
    88 Coords:     48.100000     16.500000      1.900000, Make: null, ID: SZ2_SM_2/0_2_150, Quantity: ADIABATIC SURFACE TEMPERATURE
    89 Coords:     48.300000     16.700000      1.900000, Make: null, ID: SZ2_SM_2/0_3_150, Quantity: ADIABATIC SURFACE TEMPERATURE
    90 Coords:     47.900000     16.700000      1.900000, Make: null, ID: SZ2_SM_2/0_4_150, Quantity: ADIABATIC SURFACE TEMPERATURE
    91 Coords:     48.100000     16.900000      2.700000, Make: null, ID: SZ2_SM_2/0_1_230, Quantity: ADIABATIC SURFACE TEMPERATURE
    92 Coords:     48.300000     16.700000      2.700000, Make: null, ID: SZ2_SM_2/0_3_230, Quantity: ADIABATIC SURFACE TEMPERATURE
    93 Coords:     47.900000     16.700000      2.700000, Make: null, ID: SZ2_SM_2/0_4_230, Quantity: ADIABATIC SURFACE TEMPERATURE
    94 Coords:     48.100000     16.900000      3.300000, Make: null, ID: SZ2_SM_2/0_1_290, Quantity: ADIABATIC SURFACE TEMPERATURE
    95 Coords:     48.100000     16.500000      3.300000, Make: null, ID: SZ2_SM_2/0_2_290, Quantity: ADIABATIC SURFACE TEMPERATURE
    96 Coords:     48.100000     16.900000      3.500000, Make: null, ID: SZ2_SM_2/0_1_310, Quantity: ADIABATIC SURFACE TEMPERATURE
    97 Coords:     48.100000     16.500000      3.500000, Make: null, ID: SZ2_SM_2/0_2_310, Quantity: ADIABATIC SURFACE TEMPERATURE
    98 Coords:     48.100000     16.900000      3.700000, Make: null, ID: SZ2_SM_2/0_1_330, Quantity: ADIABATIC SURFACE TEMPERATURE
    99 Coords:     48.100000     16.500000      3.700000, Make: null, ID: SZ2_SM_2/0_2_330, Quantity: ADIABATIC SURFACE TEMPERATURE
   100 Coords:     48.100000     16.500000      4.300000, Make: null, ID: SZ2_SM_2/0_2_390, Quantity: ADIABATIC SURFACE TEMPERATURE
   101 Coords:     50.700000     16.500000      1.500000, Make: null, ID: SZ2_SM_3/0_2_110, Quantity: ADIABATIC SURFACE TEMPERATURE
   102 Coords:     50.900000     16.700000      1.500000, Make: null, ID: SZ2_SM_3/0_3_110, Quantity: ADIABATIC SURFACE TEMPERATURE
   103 Coords:     50.500000     16.700000      1.500000, Make: null, ID: SZ2_SM_3/0_4_110, Quantity: ADIABATIC SURFACE TEMPERATURE
   104 Coords:     50.700000     16.500000      1.700000, Make: null, ID: SZ2_SM_3/0_2_130, Quantity: ADIABATIC SURFACE TEMPERATURE
   105 Coords:     50.900000     16.700000      1.700000, Make: null, ID: SZ2_SM_3/0_3_130, Quantity: ADIABATIC SURFACE TEMPERATURE
   106 Coords:     50.500000     16.700000      1.700000, Make: null, ID: SZ2_SM_3/0_4_130, Quantity: ADIABATIC SURFACE TEMPERATURE
   107 Coords:     50.700000     16.900000      1.900000, Make: null, ID: SZ2_SM_3/0_1_150, Quantity: ADIABATIC SURFACE TEMPERATURE
   108 Coords:     50.700000     16.500000      1.900000, Make: null, ID: SZ2_SM_3/0_2_150, Quantity: ADIABATIC SURFACE TEMPERATURE
   109 Coords:     50.900000     16.700000      1.900000, Make: null, ID: SZ2_SM_3/0_3_150, Quantity: ADIABATIC SURFACE TEMPERATURE
   110 Coords:     50.500000     16.700000      1.900000, Make: null, ID: SZ2_SM_3/0_4_150, Quantity: ADIABATIC SURFACE TEMPERATURE
   111 Coords:     50.700000     16.900000      2.700000, Make: null, ID: SZ2_SM_3/0_1_230, Quantity: ADIABATIC SURFACE TEMPERATURE
   112 Coords:     50.900000     16.700000      2.700000, Make: null, ID: SZ2_SM_3/0_3_230, Quantity: ADIABATIC SURFACE TEMPERATURE
   113 Coords:     50.500000     16.700000      2.700000, Make: null, ID: SZ2_SM_3/0_4_230, Quantity: ADIABATIC SURFACE TEMPERATURE
   114 Coords:     50.700000     16.900000      3.300000, Make: null, ID: SZ2_SM_3/0_1_290, Quantity: ADIABATIC SURFACE TEMPERATURE
   115 Coords:     50.700000     16.500000      3.300000, Make: null, ID: SZ2_SM_3/0_2_290, Quantity: ADIABATIC SURFACE TEMPERATURE
   116 Coords:     50.700000     16.900000      3.500000, Make: null, ID: SZ2_SM_3/0_1_310, Quantity: ADIABATIC SURFACE TEMPERATURE
   117 Coords:     50.700000     16.500000      3.500000, Make: null, ID: SZ2_SM_3/0_2_310, Quantity: ADIABATIC SURFACE TEMPERATURE
   118 Coords:     50.700000     16.900000      3.700000, Make: null, ID: SZ2_SM_3/0_1_330, Quantity: ADIABATIC SURFACE TEMPERATURE
   119 Coords:     50.700000     16.500000      3.700000, Make: null, ID: SZ2_SM_3/0_2_330, Quantity: ADIABATIC SURFACE TEMPERATURE
   120 Coords:     50.700000     16.500000      4.300000, Make: null, ID: SZ2_SM_3/0_2_390, Quantity: ADIABATIC SURFACE TEMPERATURE
   121 Coords:     38.100000     17.900000      3.900000, Make: null, ID: SZ2_DT_-3/1.20_01, Quantity: ADIABATIC SURFACE TEMPERATURE
   122 Coords:     38.100000     18.300000      3.900000, Make: null, ID: SZ2_DT_-3/1.60_01, Quantity: ADIABATIC SURFACE TEMPERATURE
   123 Coords:     38.100000     18.700000      3.900000, Make: null, ID: SZ2_DT_-3/2.00_01, Quantity: ADIABATIC SURFACE TEMPERATURE
   124 Coords:     38.100000     19.100000      3.900000, Make: null, ID: SZ2_DT_-3/2.40_01, Quantity: ADIABATIC SURFACE TEMPERATURE
   125 Coords:     38.100000     19.500000      3.900000, Make: null, ID: SZ2_DT_-3/2.80_01, Quantity: ADIABATIC SURFACE TEMPERATURE
   126 Coords:     38.100000     19.900000      3.900000, Make: null, ID: SZ2_DT_-3/3.20_01, Quantity: ADIABATIC SURFACE TEMPERATURE
   127 Coords:     38.100000     20.300000      3.900000, Make: null, ID: SZ2_DT_-3/3.60_01, Quantity: ADIABATIC SURFACE TEMPERATURE
   128 Coords:     38.100000     20.700000      3.900000, Make: null, ID: SZ2_DT_-3/4.00_01, Quantity: ADIABATIC SURFACE TEMPERATURE
   129 Coords:     38.100000     21.700000      3.900000, Make: null, ID: SZ2_DT_-3/5.00_01, Quantity: ADIABATIC SURFACE TEMPERATURE
   130 Coords:     38.100000     15.500000      2.500000, Make: null, ID: SZ2_DT_-3/-1.20_01, Quantity: ADIABATIC SURFACE TEMPERATURE
   131 Coords:     38.100000     15.100000      2.500000, Make: null, ID: SZ2_DT_-3/-1.60_01, Quantity: ADIABATIC SURFACE TEMPERATURE
   132 Coords:     38.100000     14.700000      2.500000, Make: null, ID: SZ2_DT_-3/-2.00_01, Quantity: ADIABATIC SURFACE TEMPERATURE
   133 Coords:     38.100000     14.300000      2.500000, Make: null, ID: SZ2_DT_-3/-2.40_01, Quantity: ADIABATIC SURFACE TEMPERATURE
   134 Coords:     38.100000     13.900000      2.500000, Make: null, ID: SZ2_DT_-3/-2.80_01, Quantity: ADIABATIC SURFACE TEMPERATURE
   135 Coords:     38.100000     13.500000      2.500000, Make: null, ID: SZ2_DT_-3/-3.20_01, Quantity: ADIABATIC SURFACE TEMPERATURE
   136 Coords:     38.100000     13.100000      2.500000, Make: null, ID: SZ2_DT_-3/-3.60_01, Quantity: ADIABATIC SURFACE TEMPERATURE
   137 Coords:     38.100000     12.700000      2.500000, Make: null, ID: SZ2_DT_-3/-4.00_01, Quantity: ADIABATIC SURFACE TEMPERATURE
   138 Coords:     38.100000     11.700000      2.500000, Make: null, ID: SZ2_DT_-3/-5.00_01, Quantity: ADIABATIC SURFACE TEMPERATURE
   139 Coords:     40.700000     17.900000      3.900000, Make: null, ID: SZ2_DT_-2/1.20_1, Quantity: ADIABATIC SURFACE TEMPERATURE
   140 Coords:     40.700000     18.300000      3.900000, Make: null, ID: SZ2_DT_-2/1.60_1, Quantity: ADIABATIC SURFACE TEMPERATURE
   141 Coords:     40.700000     18.700000      3.900000, Make: null, ID: SZ2_DT_-2/2.00_1, Quantity: ADIABATIC SURFACE TEMPERATURE
   142 Coords:     40.700000     19.100000      3.900000, Make: null, ID: SZ2_DT_-2/2.40_1, Quantity: ADIABATIC SURFACE TEMPERATURE
   143 Coords:     40.700000     19.500000      3.900000, Make: null, ID: SZ2_DT_-2/2.80_1, Quantity: ADIABATIC SURFACE TEMPERATURE
   144 Coords:     40.700000     19.900000      3.900000, Make: null, ID: SZ2_DT_-2/3.20_1, Quantity: ADIABATIC SURFACE TEMPERATURE
   145 Coords:     40.700000     20.300000      3.900000, Make: null, ID: SZ2_DT_-2/3.60_1, Quantity: ADIABATIC SURFACE TEMPERATURE
   146 Coords:     40.700000     20.700000      3.900000, Make: null, ID: SZ2_DT_-2/4.00_1, Quantity: ADIABATIC SURFACE TEMPERATURE
   147 Coords:     40.700000     21.700000      3.900000, Make: null, ID: SZ2_DT_-2/5.00_1, Quantity: ADIABATIC SURFACE TEMPERATURE
   148 Coords:     40.700000     15.500000      2.500000, Make: null, ID: SZ2_DT_-2/-1.20_1, Quantity: ADIABATIC SURFACE TEMPERATURE
   149 Coords:     40.700000     15.100000      2.500000, Make: null, ID: SZ2_DT_-2/-1.60_1, Quantity: ADIABATIC SURFACE TEMPERATURE
   150 Coords:     40.700000     14.700000      2.500000, Make: null, ID: SZ2_DT_-2/-2.00_1, Quantity: ADIABATIC SURFACE TEMPERATURE
   151 Coords:     40.700000     14.300000      2.500000, Make: null, ID: SZ2_DT_-2/-2.40_1, Quantity: ADIABATIC SURFACE TEMPERATURE
   152 Coords:     40.700000     13.900000      2.500000, Make: null, ID: SZ2_DT_-2/-2.80_1, Quantity: ADIABATIC SURFACE TEMPERATURE
   153 Coords:     40.700000     13.500000      2.500000, Make: null, ID: SZ2_DT_-2/-3.20_1, Quantity: ADIABATIC SURFACE TEMPERATURE
   154 Coords:     40.700000     13.100000      2.500000, Make: null, ID: SZ2_DT_-2/-3.60_1, Quantity: ADIABATIC SURFACE TEMPERATURE
   155 Coords:     40.700000     12.700000      2.500000, Make: null, ID: SZ2_DT_-2/-4.00_1, Quantity: ADIABATIC SURFACE TEMPERATURE
   156 Coords:     40.700000     11.700000      2.500000, Make: null, ID: SZ2_DT_-2/-5.00_1, Quantity: ADIABATIC SURFACE TEMPERATURE
   157 Coords:     43.100000     17.900000      3.900000, Make: null, ID: SZ2_DT_-1/1.20_1, Quantity: ADIABATIC SURFACE TEMPERATURE
   158 Coords:     43.100000     18.300000      3.900000, Make: null, ID: SZ2_DT_-1/1.60_1, Quantity: ADIABATIC SURFACE TEMPERATURE
   159 Coords:     43.100000     18.700000      3.900000, Make: null, ID: SZ2_DT_-1/2.00_1, Quantity: ADIABATIC SURFACE TEMPERATURE
   160 Coords:     43.100000     19.500000      3.900000, Make: null, ID: SZ2_DT_-1/2.80_1, Quantity: ADIABATIC SURFACE TEMPERATURE
   161 Coords:     43.100000     19.900000      3.900000, Make: null, ID: SZ2_DT_-1/3.20_1, Quantity: ADIABATIC SURFACE TEMPERATURE
   162 Coords:     43.100000     19.100000      3.900000, Make: null, ID: SZ2_DT_-1/2.40_1, Quantity: ADIABATIC SURFACE TEMPERATURE
   163 Coords:     43.100000     20.300000      3.900000, Make: null, ID: SZ2_DT_-1/3.60_1, Quantity: ADIABATIC SURFACE TEMPERATURE
   164 Coords:     43.100000     20.700000      3.900000, Make: null, ID: SZ2_DT_-1/4.00_1, Quantity: ADIABATIC SURFACE TEMPERATURE
   165 Coords:     43.100000     21.700000      3.900000, Make: null, ID: SZ2_DT_-1/5.00_1, Quantity: ADIABATIC SURFACE TEMPERATURE
   166 Coords:     43.100000     15.500000      2.500000, Make: null, ID: SZ2_DT_-1/-1.20_1, Quantity: ADIABATIC SURFACE TEMPERATURE
   167 Coords:     43.100000     15.100000      2.500000, Make: null, ID: SZ2_DT_-1/-1.60_1, Quantity: ADIABATIC SURFACE TEMPERATURE
   168 Coords:     43.100000     14.700000      2.500000, Make: null, ID: SZ2_DT_-1/-2.00_1, Quantity: ADIABATIC SURFACE TEMPERATURE
   169 Coords:     43.100000     14.300000      2.500000, Make: null, ID: SZ2_DT_-1/-2.40_1, Quantity: ADIABATIC SURFACE TEMPERATURE
   170 Coords:     43.100000     13.900000      2.500000, Make: null, ID: SZ2_DT_-1/-2.80_1, Quantity: ADIABATIC SURFACE TEMPERATURE
   171 Coords:     43.100000     13.500000      2.500000, Make: null, ID: SZ2_DT_-1/-3.20_1, Quantity: ADIABATIC SURFACE TEMPERATURE
   172 Coords:     43.100000     13.100000      2.500000, Make: null, ID: SZ2_DT_-1/-3.60_1, Quantity: ADIABATIC SURFACE TEMPERATURE
   173 Coords:     43.100000     12.700000      2.500000, Make: null, ID: SZ2_DT_-1/-4.00_1, Quantity: ADIABATIC SURFACE TEMPERATURE
   174 Coords:     43.100000     11.700000      2.500000, Make: null, ID: SZ2_DT_-1/-5.00_1, Quantity: ADIABATIC SURFACE TEMPERATURE
   175 Coords:     45.700000     17.900000      3.900000, Make: null, ID: SZ2_DT_1/1.20_1, Quantity: ADIABATIC SURFACE TEMPERATURE
   176 Coords:     45.700000     18.300000      3.900000, Make: null, ID: SZ2_DT_1/1.60_1, Quantity: ADIABATIC SURFACE TEMPERATURE
   177 Coords:     45.700000     18.700000      3.900000, Make: null, ID: SZ2_DT_1/2.00_1, Quantity: ADIABATIC SURFACE TEMPERATURE
   178 Coords:     45.700000     19.100000      3.900000, Make: null, ID: SZ2_DT_1/2.40_1, Quantity: ADIABATIC SURFACE TEMPERATURE
   179 Coords:     45.700000     19.500000      3.900000, Make: null, ID: SZ2_DT_1/2.80_1, Quantity: ADIABATIC SURFACE TEMPERATURE
   180 Coords:     45.700000     19.900000      3.900000, Make: null, ID: SZ2_DT_1/3.20_1, Quantity: ADIABATIC SURFACE TEMPERATURE
   181 Coords:     45.700000     20.300000      3.900000, Make: null, ID: SZ2_DT_1/3.60_1, Quantity: ADIABATIC SURFACE TEMPERATURE
   182 Coords:     45.700000     20.700000      3.900000, Make: null, ID: SZ2_DT_1/4.00_1, Quantity: ADIABATIC SURFACE TEMPERATURE
   183 Coords:     45.700000     21.700000      3.900000, Make: null, ID: SZ2_DT_1/5.00_1, Quantity: ADIABATIC SURFACE TEMPERATURE
   184 Coords:     45.700000     15.500000      2.500000, Make: null, ID: SZ2_DT_1/-1.20_1, Quantity: ADIABATIC SURFACE TEMPERATURE
   185 Coords:     45.700000     15.100000      2.500000, Make: null, ID: SZ2_DT_1/-1.60_1, Quantity: ADIABATIC SURFACE TEMPERATURE
   186 Coords:     45.700000     14.700000      2.500000, Make: null, ID: SZ2_DT_1/-2.00_1, Quantity: ADIABATIC SURFACE TEMPERATURE
   187 Coords:     45.700000     14.300000      2.500000, Make: null, ID: SZ2_DT_1/-2.40_1, Quantity: ADIABATIC SURFACE TEMPERATURE
   188 Coords:     45.700000     13.900000      2.500000, Make: null, ID: SZ2_DT_1/-2.80_1, Quantity: ADIABATIC SURFACE TEMPERATURE
   189 Coords:     45.700000     13.500000      2.500000, Make: null, ID: SZ2_DT_1/-3.20_1, Quantity: ADIABATIC SURFACE TEMPERATURE
   190 Coords:     45.700000     13.100000      2.500000, Make: null, ID: SZ2_DT_1/-3.60_1, Quantity: ADIABATIC SURFACE TEMPERATURE
   191 Coords:     45.700000     12.700000      2.500000, Make: null, ID: SZ2_DT_1/-4.00_2, Quantity: ADIABATIC SURFACE TEMPERATURE
   192 Coords:     45.700000     11.700000      2.500000, Make: null, ID: SZ2_DT_1/-5.00_1, Quantity: ADIABATIC SURFACE TEMPERATURE
   193 Coords:     48.100000     17.900000      3.900000, Make: null, ID: SZ2_DT_2/1.20_1, Quantity: ADIABATIC SURFACE TEMPERATURE
   194 Coords:     48.100000     18.300000      3.900000, Make: null, ID: SZ2_DT_2/1.60_1, Quantity: ADIABATIC SURFACE TEMPERATURE
   195 Coords:     48.100000     18.700000      3.900000, Make: null, ID: SZ2_DT_2/2.00_1, Quantity: ADIABATIC SURFACE TEMPERATURE
   196 Coords:     48.100000     19.100000      3.900000, Make: null, ID: SZ2_DT_2/2.40_1, Quantity: ADIABATIC SURFACE TEMPERATURE
   197 Coords:     48.100000     19.500000      3.900000, Make: null, ID: SZ2_DT_2/2.80_1, Quantity: ADIABATIC SURFACE TEMPERATURE
   198 Coords:     48.100000     19.900000      3.900000, Make: null, ID: SZ2_DT_2/3.20_1, Quantity: ADIABATIC SURFACE TEMPERATURE
   199 Coords:     48.100000     20.300000      3.900000, Make: null, ID: SZ2_DT_2/3.60_1, Quantity: ADIABATIC SURFACE TEMPERATURE
   200 Coords:     48.100000     20.700000      3.900000, Make: null, ID: SZ2_DT_2/4.00_1, Quantity: ADIABATIC SURFACE TEMPERATURE
   201 Coords:     48.100000     21.700000      3.900000, Make: null, ID: SZ2_DT_2/5.00_1, Quantity: ADIABATIC SURFACE TEMPERATURE
   202 Coords:     48.100000     15.500000      2.500000, Make: null, ID: SZ2_DT_2/-1.20_1, Quantity: ADIABATIC SURFACE TEMPERATURE
   203 Coords:     48.100000     15.100000      2.500000, Make: null, ID: SZ2_DT_2/-1.60_1, Quantity: ADIABATIC SURFACE TEMPERATURE
   204 Coords:     48.100000     14.700000      2.500000, Make: null, ID: SZ2_DT_2/-2.00_1, Quantity: ADIABATIC SURFACE TEMPERATURE
   205 Coords:     48.100000     14.300000      2.500000, Make: null, ID: SZ2_DT_2/-2.40_1, Quantity: ADIABATIC SURFACE TEMPERATURE
   206 Coords:     48.100000     13.900000      2.500000, Make: null, ID: SZ2_DT_2/-2.80_1, Quantity: ADIABATIC SURFACE TEMPERATURE
   207 Coords:     48.100000     13.500000      2.500000, Make: null, ID: SZ2_DT_2/-3.20_1, Quantity: ADIABATIC SURFACE TEMPERATURE
   208 Coords:     48.100000     13.100000      2.500000, Make: null, ID: SZ2_DT_2/-3.60_1, Quantity: ADIABATIC SURFACE TEMPERATURE
   209 Coords:     48.100000     12.700000      2.500000, Make: null, ID: SZ2_DT_2/-4.00_2, Quantity: ADIABATIC SURFACE TEMPERATURE
   210 Coords:     48.100000     11.700000      2.500000, Make: null, ID: SZ2_DT_2/-5.00_1, Quantity: ADIABATIC SURFACE TEMPERATURE
   211 Coords:     50.700000     17.900000      3.900000, Make: null, ID: SZ2_DT_3/1.20_1, Quantity: ADIABATIC SURFACE TEMPERATURE
   212 Coords:     50.700000     18.300000      3.900000, Make: null, ID: SZ2_DT_3/1.60_1, Quantity: ADIABATIC SURFACE TEMPERATURE
   213 Coords:     50.700000     18.700000      3.900000, Make: null, ID: SZ2_DT_3/2.00_1, Quantity: ADIABATIC SURFACE TEMPERATURE
   214 Coords:     50.700000     19.100000      3.900000, Make: null, ID: SZ2_DT_3/2.40_1, Quantity: ADIABATIC SURFACE TEMPERATURE
   215 Coords:     50.700000     19.500000      3.900000, Make: null, ID: SZ2_DT_3/2.80_1, Quantity: ADIABATIC SURFACE TEMPERATURE
   216 Coords:     50.700000     19.900000      3.900000, Make: null, ID: SZ2_DT_3/3.20_1, Quantity: ADIABATIC SURFACE TEMPERATURE
   217 Coords:     50.700000     20.300000      3.900000, Make: null, ID: SZ2_DT_3/3.60_1, Quantity: ADIABATIC SURFACE TEMPERATURE
   218 Coords:     50.700000     20.700000      3.900000, Make: null, ID: SZ2_DT_3/4.00_1, Quantity: ADIABATIC SURFACE TEMPERATURE
   219 Coords:     50.700000     21.700000      3.900000, Make: null, ID: SZ2_DT_3/5.00_1, Quantity: ADIABATIC SURFACE TEMPERATURE
   220 Coords:     50.700000     15.500000      2.500000, Make: null, ID: SZ2_DT_3/-1.20_1, Quantity: ADIABATIC SURFACE TEMPERATURE
   221 Coords:     50.700000     15.100000      2.500000, Make: null, ID: SZ2_DT_3/-1.60_1, Quantity: ADIABATIC SURFACE TEMPERATURE
   222 Coords:     50.700000     14.700000      2.500000, Make: null, ID: SZ2_DT_3/-2.00_1, Quantity: ADIABATIC SURFACE TEMPERATURE
   223 Coords:     50.700000     14.300000      2.500000, Make: null, ID: SZ2_DT_3/-2.40_1, Quantity: ADIABATIC SURFACE TEMPERATURE
   224 Coords:     50.700000     13.900000      2.500000, Make: null, ID: SZ2_DT_3/-2.80_1, Quantity: ADIABATIC SURFACE TEMPERATURE
   225 Coords:     50.700000     13.500000      2.500000, Make: null, ID: SZ2_DT_3/-3.20_1, Quantity: ADIABATIC SURFACE TEMPERATURE
   226 Coords:     50.700000     11.700000      2.500000, Make: null, ID: SZ2_DT_3/-5.00_1, Quantity: ADIABATIC SURFACE TEMPERATURE
   227 Coords:     50.700000     13.100000      2.500000, Make: null, ID: SZ2_DT_3/-3.60_1, Quantity: ADIABATIC SURFACE TEMPERATURE
   228 Coords:     50.700000     12.700000      2.500000, Make: null, ID: SZ2_DT_3/-4.00_1, Quantity: ADIABATIC SURFACE TEMPERATURE
   229 Coords:     41.900000     13.700000      1.700000, Make: null, ID: VAN_130, Quantity: TEMPERATURE
   230 Coords:     41.900000     13.700000      2.100000, Make: null, ID: VAN_170, Quantity: TEMPERATURE
   231 Coords:     41.900000     13.700000      2.500000, Make: null, ID: VAN_210, Quantity: TEMPERATURE
   232 Coords:     44.500000     13.700000      1.700000, Make: null, ID: PKW1_130, Quantity: TEMPERATURE
   233 Coords:     44.500000     13.700000      1.900000, Make: null, ID: PKW1_150, Quantity: TEMPERATURE
   234 Coords:     44.500000     13.700000      2.500000, Make: null, ID: PKW1_210, Quantity: TEMPERATURE
   235 Coords:     41.900000     19.700000      3.100000, Make: null, ID: PKW3_130, Quantity: TEMPERATURE
   236 Coords:     41.900000     19.700000      3.300000, Make: null, ID: PKW3_150, Quantity: TEMPERATURE
   237 Coords:     41.900000     19.700000      3.900000, Make: null, ID: PKW3_210, Quantity: TEMPERATURE
   238 Coords:     44.500000     19.700000      3.100000, Make: null, ID: PKW2_130, Quantity: TEMPERATURE
   239 Coords:     44.500000     19.700000      3.300000, Make: null, ID: PKW2_150, Quantity: TEMPERATURE
   240 Coords:     44.500000     19.700000      3.900000, Make: null, ID: PKW2_210, Quantity: TEMPERATURE


 PLOT3D Information

   Sampling Interval (s)              30.0

   1 Quantity: TEMPERATURE
   2 Quantity: U-VELOCITY
   3 Quantity: V-VELOCITY
   4 Quantity: W-VELOCITY
   5 Quantity: VISIBILITY, Species: SOOT


 Slice File Information, Mesh     1

   Sampling Interval (s)             1.000

   1 Nodes:   0  78  44  44   0  40, Quantity: TEMPERATURE
   2 Nodes:  53  53   0  60   0  40, Quantity: TEMPERATURE
   3 Nodes:  65  65   0  60   0  40, Quantity: TEMPERATURE
   4 Nodes:   0  78   0  60  12  12, Quantity: TEMPERATURE
   5 Nodes:   0  78   0  60  20  20, Quantity: TEMPERATURE
   6 Nodes:   0  78  18  18   0  40, Quantity: TEMPERATURE


 Radiation Model Information

   Number of control angles  104
   Time step increment         3
   Angle increment             5
   Theta band N_phi   Solid angle
     1:        4     0.120
     2:       12     0.114
     3:       16     0.127
     4:       20     0.120
     5:       20     0.120
     6:       16     0.127
     7:       12     0.114
     8:        4     0.120
   Using gray gas absorption.
   Mean beam length  0.100 m


 GlMat Information

   Global Pressure solver       : Intel MKL Cluster Sparse Solver
 
 
   Using GLMAT as pressure solver. List of H unknown numbers per proc:
    MPI Process, H unknowns =           0      161996 , Peak Factorization Memory Required (MB)=         365

 Run Time Diagnostics

       Time Step       1   October 13, 2020  17:29:32
       Step Size:    0.112E+00 s, Total Time:       0.11 s
       Pressure Iterations:      1
       Maximum Velocity Error:  0.87E-18 on Mesh   1 at (  42  47   8)
       Maximum Pressure Error:  0.34E-03 on Mesh   2 at (  69  16  40)
       ---------------------------------------------------------------
       Mesh    1
       Max CFL number:  0.11E-01 at (  58,   6,  32)
       Max divergence:  0.23E-02 at (  10,  32,  20)
       Min divergence: -0.15E-02 at (  71,  31,  24)
       Max VN number:   0.85E-02 at (  54,  22,  20)
       Radiation Loss to Boundaries:        21.801 kW
       Mesh    2
       Max CFL number:  0.11E-01 at (  45,   5,   5)
       Max divergence:  0.27E-02 at (  82,  11,  27)
       Min divergence: -0.16E-02 at (   5,  31,  24)
       Max VN number:   0.86E-02 at (  18,  25,  37)
       Radiation Loss to Boundaries:        15.627 kW
 
       Time Step       2   October 13, 2020  17:29:33
       Step Size:    0.112E+00 s, Total Time:       0.22 s
       Pressure Iterations:      1
       Maximum Velocity Error:  0.22E-18 on Mesh   1 at (  79  32  18)
       Maximum Pressure Error:  0.98E-04 on Mesh   1 at (  48  32  22)
       ---------------------------------------------------------------
       Mesh    1
       Max CFL number:  0.11E-01 at (  58,   6,  31)
       Max divergence:  0.55E-02 at (  10,  32,  21)
       Min divergence: -0.10E-02 at (  71,  31,  24)
       Max VN number:   0.85E-02 at (  54,  22,  20)
       Radiation Loss to Boundaries:        21.796 kW
       Mesh    2
       Max CFL number:  0.11E-01 at (  45,   5,   5)
       Max divergence:  0.58E-02 at (  20,  32,  21)
       Min divergence: -0.11E-02 at (  18,  31,  24)
       Max VN number:   0.86E-02 at (  18,  25,  37)
       Radiation Loss to Boundaries:        15.623 kW
 
       Time Step       3   October 13, 2020  17:29:35
       Step Size:    0.112E+00 s, Total Time:       0.34 s
       Pressure Iterations:      1
       Maximum Velocity Error:  0.22E-18 on Mesh   1 at (  79  33   1)
       Maximum Pressure Error:  0.89E-04 on Mesh   1 at (  35  32  20)
       ---------------------------------------------------------------
       Mesh    1
       Max CFL number:  0.11E-01 at (  58,   6,  31)
       Max divergence:  0.53E-02 at (  10,  32,  21)
       Min divergence: -0.10E-02 at (  71,  31,  24)
       Max VN number:   0.85E-02 at (  54,  22,  20)
       Radiation Loss to Boundaries:        20.969 kW
       Mesh    2
       Max CFL number:  0.11E-01 at (  45,   5,   5)
       Max divergence:  0.56E-02 at (  20,  32,  21)
       Min divergence: -0.11E-02 at (  18,  31,  24)
       Max VN number:   0.86E-02 at (  18,  25,  37)
       Radiation Loss to Boundaries:        16.155 kW
 
       Time Step       4   October 13, 2020  17:29:36
       Step Size:    0.112E+00 s, Total Time:       0.45 s
       Pressure Iterations:      1
       Maximum Velocity Error:  0.22E-18 on Mesh   1 at (  79  29  17)
       Maximum Pressure Error:  0.20E-03 on Mesh   1 at (  60  32  20)
       ---------------------------------------------------------------
       Mesh    1
       Max CFL number:  0.11E-01 at (  58,   6,  31)
       Max divergence:  0.42E-02 at (  10,  32,  20)
       Min divergence: -0.11E-02 at (  71,  31,  24)
       Max VN number:   0.85E-02 at (  54,  22,  20)
       Total Heat Release Rate:              1.050 kW
       Radiation Loss to Boundaries:        20.963 kW
       Mesh    2
       Max CFL number:  0.11E-01 at (  45,   5,   5)
       Max divergence:  0.43E-02 at (  20,  32,  20)
       Min divergence: -0.11E-02 at (  18,  31,  24)
       Max VN number:   0.86E-02 at (  18,  25,  37)
       Radiation Loss to Boundaries:        16.151 kW
 
       Time Step       5   October 13, 2020  17:29:37
       Step Size:    0.112E+00 s, Total Time:       0.56 s
       Pressure Iterations:      1
       Maximum Velocity Error:  0.22E-18 on Mesh   1 at (  79  13  17)
       Maximum Pressure Error:  0.36E-03 on Mesh   1 at (  66  21   8)
       ---------------------------------------------------------------
       Mesh    1
       Max CFL number:  0.11E-01 at (  58,   6,  31)
       Max divergence:  0.89E-02 at (  66,  16,   8)
       Min divergence: -0.11E-02 at (  71,  31,  24)
       Max VN number:   0.85E-02 at (  54,  22,  20)
       Total Heat Release Rate:              2.703 kW
       Radiation Loss to Boundaries:        20.958 kW
       Mesh    2
       Max CFL number:  0.11E-01 at (  45,   5,   5)
       Max divergence:  0.43E-02 at (  20,  32,  20)
       Min divergence: -0.11E-02 at (  18,  31,  24)
       Max VN number:   0.85E-02 at (  18,  25,  37)
       Radiation Loss to Boundaries:        16.147 kW
 
       Time Step       6   October 13, 2020  17:29:39
       Step Size:    0.112E+00 s, Total Time:       0.67 s
       Pressure Iterations:      1
       Maximum Velocity Error:  0.22E-18 on Mesh   1 at (  79  25   3)
       Maximum Pressure Error:  0.68E-03 on Mesh   1 at (  65  21   8)
       ---------------------------------------------------------------
       Mesh    1
       Max CFL number:  0.11E-01 at (  58,   6,  31)
       Max divergence:  0.12E-01 at (  70,  20,   8)
       Min divergence: -0.11E-02 at (  71,  31,  24)
       Max VN number:   0.85E-02 at (  54,  22,  20)
       Total Heat Release Rate:              3.653 kW
       Radiation Loss to Boundaries:        19.683 kW
       Mesh    2
       Max CFL number:  0.11E-01 at (  45,   5,   5)
       Max divergence:  0.42E-02 at (  20,  32,  20)
       Min divergence: -0.11E-02 at (  18,  31,  24)
       Max VN number:   0.85E-02 at (  18,  25,  37)
       Radiation Loss to Boundaries:        16.770 kW
 
       Time Step       7   October 13, 2020  17:29:40
       Step Size:    0.112E+00 s, Total Time:       0.78 s
       Pressure Iterations:      1
       Maximum Velocity Error:  0.22E-18 on Mesh   1 at (  79  25   3)
       Maximum Pressure Error:  0.82E-03 on Mesh   1 at (  65  21   8)
       ---------------------------------------------------------------
       Mesh    1
       Max CFL number:  0.11E-01 at (  58,   6,  31)
       Max divergence:  0.14E-01 at (  69,  14,   8)
       Min divergence: -0.12E-02 at (  71,  31,  24)
       Max VN number:   0.84E-02 at (  54,  22,  20)
       Total Heat Release Rate:              4.200 kW
       Radiation Loss to Boundaries:        19.677 kW
       Mesh    2
       Max CFL number:  0.11E-01 at (  45,   4,   5)
       Max divergence:  0.39E-02 at (  20,  32,  20)
       Min divergence: -0.12E-02 at (  31,  32,  21)
       Max VN number:   0.85E-02 at (  18,  25,  37)
       Radiation Loss to Boundaries:        16.766 kW
 
       Time Step       8   October 13, 2020  17:29:42
       Step Size:    0.112E+00 s, Total Time:       0.89 s
       Pressure Iterations:      1
       Maximum Velocity Error:  0.43E-18 on Mesh   1 at (  79  49  38)
       Maximum Pressure Error:  0.76E-03 on Mesh   1 at (  65  21   8)
       ---------------------------------------------------------------
       Mesh    1
       Max CFL number:  0.11E-01 at (  65,  21,   9)
       Max divergence:  0.15E-01 at (  69,  14,   8)
       Min divergence: -0.12E-02 at (  71,  31,  24)
       Max VN number:   0.84E-02 at (  54,  22,  20)
       Total Heat Release Rate:              4.514 kW
       Radiation Loss to Boundaries:        19.672 kW
       Mesh    2
       Max CFL number:  0.11E-01 at (  45,   4,   5)
       Max divergence:  0.39E-02 at (  20,  32,  20)
       Min divergence: -0.12E-02 at (  31,  32,  21)
       Max VN number:   0.85E-02 at (  18,  25,  37)
       Radiation Loss to Boundaries:        16.762 kW
 
       Time Step       9   October 13, 2020  17:29:43
       Step Size:    0.112E+00 s, Total Time:       1.01 s
       Pressure Iterations:      1
       Maximum Velocity Error:  0.22E-18 on Mesh   1 at (  79  45   7)
       Maximum Pressure Error:  0.92E-03 on Mesh   2 at (  20  32  22)
       ---------------------------------------------------------------
       Mesh    1
       Max CFL number:  0.12E-01 at (  65,  21,   9)
       Max divergence:  0.15E-01 at (  65,  14,   8)
       Min divergence: -0.12E-02 at (  20,  32,  21)
       Max VN number:   0.84E-02 at (  54,  22,  20)
       Total Heat Release Rate:              4.694 kW
       Radiation Loss to Boundaries:        18.888 kW
       Mesh    2
       Max CFL number:  0.11E-01 at (  45,   4,   5)
       Max divergence:  0.39E-02 at (  20,  32,  20)
       Min divergence: -0.12E-02 at (  31,  32,  21)
       Max VN number:   0.85E-02 at (  18,  25,  37)
       Radiation Loss to Boundaries:        17.045 kW
 
       Time Step      10   October 13, 2020  17:29:44
       Step Size:    0.112E+00 s, Total Time:       1.12 s
       Pressure Iterations:      1
       Maximum Velocity Error:  0.22E-18 on Mesh   1 at (  79  25   3)
       Maximum Pressure Error:  0.96E-03 on Mesh   2 at (  20  32  22)
       ---------------------------------------------------------------
       Mesh    1
       Max CFL number:  0.12E-01 at (  65,  21,   9)
       Max divergence:  0.15E-01 at (  65,  14,   8)
       Min divergence: -0.13E-02 at (  33,  32,  22)
       Max VN number:   0.84E-02 at (  54,  22,  20)
       Total Heat Release Rate:              4.798 kW
       Radiation Loss to Boundaries:        18.882 kW
       Mesh    2
       Max CFL number:  0.11E-01 at (  45,   4,   5)
       Max divergence:  0.40E-02 at (  82,  12,  27)
       Min divergence: -0.13E-02 at (  18,  32,  22)
       Max VN number:   0.84E-02 at (  18,  25,  37)
       Radiation Loss to Boundaries:        17.041 kW
 
       Time Step      20   October 13, 2020  17:30:00
       Step Size:    0.112E+00 s, Total Time:       2.24 s
       Pressure Iterations:      1
       Maximum Velocity Error:  0.22E-18 on Mesh   1 at (  79  29  17)
       Maximum Pressure Error:  0.38E-01 on Mesh   1 at (  64  21   8)
       ---------------------------------------------------------------
       Mesh    1
       Max CFL number:  0.31E-01 at (  63,  10,   8)
       Max divergence:  0.40E-01 at (  67,  14,   8)
       Min divergence: -0.14E-02 at (  71,  32,  22)
       Max VN number:   0.12E-01 at (  64,   9,   9)
       Total Heat Release Rate:             12.533 kW
       Radiation Loss to Boundaries:        15.725 kW
       Mesh    2
       Max CFL number:  0.31E-01 at (  20,  32,  20)
       Max divergence:  0.47E-02 at (  82,  12,  27)
       Min divergence: -0.13E-02 at (  20,  32,  22)
       Max VN number:   0.93E-02 at (  21,  33,  21)
       Radiation Loss to Boundaries:        15.574 kW
 
       Time Step      30   October 13, 2020  17:30:14
       Step Size:    0.112E+00 s, Total Time:       3.35 s
       Pressure Iterations:      1
       Maximum Velocity Error:  0.43E-18 on Mesh   1 at (  79  17  12)
       Maximum Pressure Error:  0.98E-01 on Mesh   1 at (  62  21   8)
       ---------------------------------------------------------------
       Mesh    1
       Max CFL number:  0.93E-01 at (  63,  10,   8)
       Max divergence:  0.63E-01 at (  69,  20,   8)
       Min divergence: -0.15E-02 at (  63,  10,   9)
       Max VN number:   0.35E-01 at (  62,  20,   8)
       Total Heat Release Rate:             19.006 kW
       Radiation Loss to Boundaries:        14.826 kW
       Mesh    2
       Max CFL number:  0.60E-01 at (  20,  32,  20)
       Max divergence:  0.50E-02 at (  82,  12,  27)
       Min divergence: -0.15E-02 at (   5,  32,  22)
       Max VN number:   0.13E-01 at (  20,  33,  19)
       Radiation Loss to Boundaries:        12.601 kW
 
       Time Step      40   October 13, 2020  17:30:27
       Step Size:    0.112E+00 s, Total Time:       4.47 s
       Pressure Iterations:      1
       Maximum Velocity Error:  0.43E-18 on Mesh   1 at (  79  17  12)
       Maximum Pressure Error:  0.24E+00 on Mesh   1 at (  68  15   8)
       ---------------------------------------------------------------
       Mesh    1
       Max CFL number:  0.22E+00 at (  69,  20,   8)
       Max divergence:  0.84E-01 at (  68,  15,   8)
       Min divergence: -0.25E-01 at (  69,  12,   9)
       Max VN number:   0.14E+00 at (  69,  20,   8)
       Total Heat Release Rate:             24.549 kW
       Radiation Loss to Boundaries:        15.654 kW
       Mesh    2
       Max CFL number:  0.98E-01 at (  20,  32,  20)
       Max divergence:  0.50E-02 at (  82,  12,  27)
       Min divergence: -0.13E-02 at (  18,  32,  21)
       Max VN number:   0.26E-01 at (  20,  32,  22)
       Radiation Loss to Boundaries:        15.465 kW
 
       Time Step      50   October 13, 2020  17:30:39
       Step Size:    0.112E+00 s, Total Time:       5.59 s
       Pressure Iterations:      1
       Maximum Velocity Error:  0.87E-18 on Mesh   1 at (  79  16  12)
       Maximum Pressure Error:  0.64E+00 on Mesh   1 at (  66  14   8)
       ---------------------------------------------------------------
       Mesh    1
       Max CFL number:  0.45E+00 at (  66,  19,   9)
       Max divergence:  0.13E+00 at (  68,  20,   8)
       Min divergence: -0.84E-01 at (  67,  17,   9)
       Max VN number:   0.23E+00 at (  68,  19,   8)
       Total Heat Release Rate:             32.287 kW
       Radiation Loss to Boundaries:        11.708 kW
       Mesh    2
       Max CFL number:  0.13E+00 at (  20,  32,  20)
       Max divergence:  0.52E-02 at (  82,   7,  13)
       Min divergence: -0.21E-02 at (  31,  32,  21)
       Max VN number:   0.66E-01 at (  20,  32,  22)
       Radiation Loss to Boundaries:        16.400 kW
 
       Time Step      60   October 13, 2020  17:30:53
       Step Size:    0.112E+00 s, Total Time:       6.71 s
       Pressure Iterations:      1
       Maximum Velocity Error:  0.87E-18 on Mesh   1 at (  79  19   5)
       Maximum Pressure Error:  0.97E+00 on Mesh   1 at (  65  12  10)
       ---------------------------------------------------------------
       Mesh    1
       Max CFL number:  0.48E+00 at (  65,  12,  10)
       Max divergence:  0.19E+00 at (  65,  19,   8)
       Min divergence: -0.45E-01 at (  71,  15,  10)
       Max VN number:   0.32E+00 at (  67,  19,   8)
       Total Heat Release Rate:             38.755 kW
       Radiation Loss to Boundaries:         7.554 kW
       Mesh    2
       Max CFL number:  0.15E+00 at (  68,  12,  25)
       Max divergence:  0.56E-02 at (  82,   7,  13)
       Min divergence: -0.25E-02 at (  31,  32,  21)
       Max VN number:   0.98E-01 at (  20,  32,  22)
       Radiation Loss to Boundaries:        14.237 kW
 
       Time Step      70   October 13, 2020  17:31:07
       Step Size:    0.112E+00 s, Total Time:       7.83 s
       Pressure Iterations:      1
       Maximum Velocity Error:  0.35E-17 on Mesh   1 at (  79  21   4)
       Maximum Pressure Error:  0.97E+00 on Mesh   1 at (  67  13  10)
       ---------------------------------------------------------------
       Mesh    1
       Max CFL number:  0.55E+00 at (  71,  17,  10)
       Max divergence:  0.16E+00 at (  64,  17,   8)
       Min divergence: -0.47E-01 at (  67,  15,   9)
       Max VN number:   0.30E+00 at (  67,  12,  10)
       Total Heat Release Rate:             44.303 kW
       Radiation Loss to Boundaries:         2.875 kW
       Mesh    2
       Max CFL number:  0.20E+00 at (  68,  12,  26)
       Max divergence:  0.59E-02 at (  68,  49,  34)
       Min divergence: -0.21E-02 at (  31,  32,  21)
       Max VN number:   0.11E+00 at (   5,  32,  22)
       Radiation Loss to Boundaries:        11.708 kW
 
       Time Step      80   October 13, 2020  17:31:22
       Step Size:    0.112E+00 s, Total Time:       8.94 s
       Pressure Iterations:      1
       Maximum Velocity Error:  0.69E-17 on Mesh   1 at (  79  14  11)
       Maximum Pressure Error:  0.16E+01 on Mesh   1 at (  67  15  10)
       ---------------------------------------------------------------
       Mesh    1
       Max CFL number:  0.53E+00 at (  70,  17,  10)
       Max divergence:  0.17E+00 at (  67,  16,   8)
       Min divergence: -0.51E-01 at (  71,  11,  10)
       Max VN number:   0.31E+00 at (  67,  16,   8)
       Total Heat Release Rate:             52.041 kW
       Radiation Loss to Boundaries:         1.314 kW
       Mesh    2
       Max CFL number:  0.22E+00 at (  68,  12,  27)
       Max divergence:  0.62E-02 at (  68,  49,  34)
       Min divergence: -0.21E-02 at (  31,  32,  21)
       Max VN number:   0.12E+00 at (  68,  12,  27)
       Radiation Loss to Boundaries:        13.188 kW
 
       Time Step      90   October 13, 2020  17:31:36
       Step Size:    0.112E+00 s, Total Time:      10.06 s
       Pressure Iterations:      1
       Maximum Velocity Error:  0.28E-16 on Mesh   1 at (  79  16  15)
       Maximum Pressure Error:  0.31E+01 on Mesh   1 at (  66  16  10)
       ---------------------------------------------------------------
       Mesh    1
       Max CFL number:  0.55E+00 at (  71,  20,  10)
       Max divergence:  0.18E+00 at (  68,  11,   8)
       Min divergence: -0.68E-01 at (  71,  20,  10)
       Max VN number:   0.36E+00 at (  66,   6,  15)
       Total Heat Release Rate:             58.514 kW
       Radiation Loss to Boundaries:         0.917 kW
       Mesh    2
       Max CFL number:  0.21E+00 at (  68,  12,  40)
       Max divergence:  0.64E-02 at (  68,  49,  34)
       Min divergence: -0.21E-02 at (  31,  32,  21)
       Max VN number:   0.11E+00 at (  68,  12,  27)
       Radiation Loss to Boundaries:        14.443 kW
 
       Time Step     100   October 13, 2020  17:31:50
       Step Size:    0.112E+00 s, Total Time:      11.18 s
       Pressure Iterations:      1
       Maximum Velocity Error:  0.14E-16 on Mesh   1 at (  79  14   7)
       Maximum Pressure Error:  0.33E+01 on Mesh   1 at (  66  15  10)
       ---------------------------------------------------------------
       Mesh    1
       Max CFL number:  0.58E+00 at (  61,  20,  10)
       Max divergence:  0.20E+00 at (  63,  12,   8)
       Min divergence: -0.88E-01 at (  71,  20,  10)
       Max VN number:   0.34E+00 at (  59,  20,  13)
       Total Heat Release Rate:             64.056 kW
       Radiation Loss to Boundaries:        -2.491 kW
       Mesh    2
       Max CFL number:  0.42E+00 at (   1,  17,  15)
       Max divergence:  0.66E-02 at (  68,  49,  34)
       Min divergence: -0.59E-02 at (   1,  18,  15)
       Max VN number:   0.14E+00 at (   1,  18,  15)
       Radiation Loss to Boundaries:        14.766 kW
 
       Time Step     200   October 13, 2020  17:34:03
       Step Size:    0.112E+00 s, Total Time:      22.36 s
       Pressure Iterations:      1
       Maximum Velocity Error:  0.11E-15 on Mesh   1 at (  79  13  15)
       Maximum Pressure Error:  0.75E+01 on Mesh   1 at (  66  14  10)
       ---------------------------------------------------------------
       Mesh    1
       Max CFL number:  0.80E+00 at (  61,  17,  11)
       Max divergence:  0.45E+00 at (  63,  12,   8)
       Min divergence: -0.17E+00 at (  69,  22,  10)
       Max VN number:   0.54E+00 at (  72,  18,  13)
       Total Heat Release Rate:            129.425 kW
       Radiation Loss to Boundaries:       -23.407 kW
       Mesh    2
       Max CFL number:  0.51E+00 at (   1,  13,  15)
       Max divergence:  0.81E-02 at (   6,  30,  13)
       Min divergence: -0.72E-02 at (   4,  13,  15)
       Max VN number:   0.25E+00 at (   5,  19,  14)
       Radiation Loss to Boundaries:        10.535 kW
 
       Time Step     300   October 13, 2020  17:36:14
       Step Size:    0.986E-01 s, Total Time:      32.80 s
       Pressure Iterations:      1
       Maximum Velocity Error:  0.11E-15 on Mesh   1 at (  79  12  15)
       Maximum Pressure Error:  0.13E+02 on Mesh   1 at (  60  17  15)
       ---------------------------------------------------------------
       Mesh    1
       Max CFL number:  0.83E+00 at (  72,  19,  13)
       Max divergence:  0.72E+00 at (  68,  20,   8)
       Min divergence: -0.47E+00 at (  66,  14,   9)
       Max VN number:   0.68E+00 at (  72,  19,  13)
       Total Heat Release Rate:            188.111 kW
       Radiation Loss to Boundaries:       -38.045 kW
       Mesh    2
       Max CFL number:  0.59E+00 at (   5,  36,  15)
       Max divergence:  0.13E-01 at (   6,  34,  14)
       Min divergence: -0.19E-01 at (   5,  32,  15)
       Max VN number:   0.26E+00 at (   5,  12,  15)
       Radiation Loss to Boundaries:        10.770 kW
 
       Time Step     400   October 13, 2020  17:38:35
       Step Size:    0.850E-01 s, Total Time:      41.94 s
       Pressure Iterations:      1
       Maximum Velocity Error:  0.11E-15 on Mesh   1 at (  79  22  15)
       Maximum Pressure Error:  0.19E+02 on Mesh   1 at (  71  16  15)
       ---------------------------------------------------------------
       Mesh    1
       Max CFL number:  0.85E+00 at (  72,  16,  13)
       Max divergence:  0.19E+01 at (  66,  12,   8)
       Min divergence: -0.66E+00 at (  65,  16,   9)
       Max VN number:   0.67E+00 at (  72,  17,  13)
       Total Heat Release Rate:            243.451 kW
       Radiation Loss to Boundaries:       -57.314 kW
       Mesh    2
       Max CFL number:  0.54E+00 at (   5,  32,  15)
       Max divergence:  0.16E-01 at (   4,  18,  13)
       Min divergence: -0.25E-01 at (   5,  32,  15)
       Max VN number:   0.28E+00 at (   5,  14,  15)
       Radiation Loss to Boundaries:        12.152 kW
 
       Time Step     500   October 13, 2020  17:40:35
       Step Size:    0.833E-01 s, Total Time:      50.70 s
       Pressure Iterations:      1
       Maximum Velocity Error:  0.56E-16 on Mesh   1 at (  79  14  14)
       Maximum Pressure Error:  0.24E+02 on Mesh   1 at (  65  14  10)
       ---------------------------------------------------------------
       Mesh    1
       Max CFL number:  0.86E+00 at (  72,  15,  12)
       Max divergence:  0.13E+01 at (  63,  12,   8)
       Min divergence: -0.59E+00 at (  67,  15,   9)
       Max VN number:   0.64E+00 at (  72,  15,  13)
       Total Heat Release Rate:            296.604 kW
       Radiation Loss to Boundaries:       -75.299 kW
       Mesh    2
       Max CFL number:  0.54E+00 at (   5,  34,  15)
       Max divergence:  0.23E-01 at (   6,  13,  12)
       Min divergence: -0.27E-01 at (   5,  32,  15)
       Max VN number:   0.27E+00 at (   5,  14,  15)
       Radiation Loss to Boundaries:        10.316 kW
 
       Time Step     600   October 13, 2020  17:42:27
       Step Size:    0.748E-01 s, Total Time:      58.89 s
       Pressure Iterations:      1
       Maximum Velocity Error:  0.11E-15 on Mesh   1 at (  79  15  14)
       Maximum Pressure Error:  0.40E+02 on Mesh   1 at (  71  15  15)
       ---------------------------------------------------------------
       Mesh    1
       Max CFL number:  0.10E+01 at (  72,  16,  10)
       Max divergence:  0.13E+01 at (  62,  11,   8)
       Min divergence: -0.88E+00 at (  61,  11,  10)
       Max VN number:   0.72E+00 at (  72,  15,  13)
       Total Heat Release Rate:            340.159 kW
       Radiation Loss to Boundaries:       -86.611 kW
       Mesh    2
       Max CFL number:  0.49E+00 at (   5,  34,  15)
       Max divergence:  0.19E-01 at (   6,  26,  12)
       Min divergence: -0.28E-01 at (   5,  34,  15)
       Max VN number:   0.24E+00 at (   5,  14,  15)
       Radiation Loss to Boundaries:        13.283 kW
 
       Time Step     700   October 13, 2020  17:44:39
       Step Size:    0.724E-01 s, Total Time:      66.11 s
       Pressure Iterations:      1
       Maximum Velocity Error:  0.56E-16 on Mesh   1 at (  79  14  14)
       Maximum Pressure Error:  0.35E+02 on Mesh   1 at (  60  16  15)
       ---------------------------------------------------------------
       Mesh    1
       Max CFL number:  0.91E+00 at (  68,  22,  10)
       Max divergence:  0.40E+01 at (  66,  10,   8)
       Min divergence: -0.64E+00 at (  61,  11,  10)
       Max VN number:   0.48E+00 at (  72,  18,  13)
       Total Heat Release Rate:            395.468 kW
       Radiation Loss to Boundaries:       -99.315 kW
       Mesh    2
       Max CFL number:  0.51E+00 at (   5,  32,  15)
       Max divergence:  0.25E-01 at (   2,  32,  14)
       Min divergence: -0.49E-01 at (   5,  32,  15)
       Max VN number:   0.23E+00 at (   5,  33,  15)
       Radiation Loss to Boundaries:        15.036 kW
 
       Time Step     800   October 13, 2020  17:46:34
       Step Size:    0.729E-01 s, Total Time:      72.90 s
       Pressure Iterations:      1
       Maximum Velocity Error:  0.56E-16 on Mesh   1 at (  79   6  14)
       Maximum Pressure Error:  0.45E+02 on Mesh   1 at (  60  15  15)
       ---------------------------------------------------------------
       Mesh    1
       Max CFL number:  0.89E+00 at (  62,  33,  15)
       Max divergence:  0.17E+01 at (  63,  12,   8)
       Min divergence: -0.70E+00 at (  64,  18,   9)
       Max VN number:   0.57E+00 at (  60,  15,  15)
       Total Heat Release Rate:            400.407 kW
       Radiation Loss to Boundaries:      -102.862 kW
       Mesh    2
       Max CFL number:  0.59E+00 at (   5,  35,  15)
       Max divergence:  0.32E-01 at (   5,  32,  16)
       Min divergence: -0.49E-01 at (   5,  35,  15)
       Max VN number:   0.28E+00 at (   5,  17,  15)
       Radiation Loss to Boundaries:        15.395 kW
 
       Time Step     900   October 13, 2020  17:48:28
       Step Size:    0.627E-01 s, Total Time:      80.02 s
       Pressure Iterations:      1
       Maximum Velocity Error:  0.11E-15 on Mesh   1 at (  79  14  14)
       Maximum Pressure Error:  0.50E+02 on Mesh   1 at (  71  14  15)
       ---------------------------------------------------------------
       Mesh    1
       Max CFL number:  0.85E+00 at (  72,  14,  13)
       Max divergence:  0.23E+01 at (  69,  12,   8)
       Min divergence: -0.11E+01 at (  72,  14,  13)
       Max VN number:   0.73E+00 at (  72,  13,  13)
       Total Heat Release Rate:            458.099 kW
       Radiation Loss to Boundaries:      -115.409 kW
       Mesh    2
       Max CFL number:  0.50E+00 at (   5,  32,  15)
       Max divergence:  0.32E-01 at (   5,  32,  16)
       Min divergence: -0.57E-01 at (   5,  34,  15)
       Max VN number:   0.21E+00 at (   5,  35,  15)
       Radiation Loss to Boundaries:        13.839 kW
 
       Time Step    1000   October 13, 2020  17:50:21
       Step Size:    0.673E-01 s, Total Time:      86.60 s
       Pressure Iterations:      1
       Maximum Velocity Error:  0.56E-16 on Mesh   1 at (  79  18  14)
       Maximum Pressure Error:  0.58E+02 on Mesh   1 at (  60  16  15)
       ---------------------------------------------------------------
       Mesh    1
       Max CFL number:  0.89E+00 at (  61,  15,  10)
       Max divergence:  0.23E+01 at (  62,  13,   8)
       Min divergence: -0.65E+00 at (  71,  11,  10)
       Max VN number:   0.58E+00 at (  59,  16,  13)
       Total Heat Release Rate:            496.290 kW
       Radiation Loss to Boundaries:      -117.914 kW
       Mesh    2
       Max CFL number:  0.58E+00 at (   5,  33,  15)
       Max divergence:  0.37E-01 at (   1,  32,  14)
       Min divergence: -0.72E-01 at (   5,  33,  15)
       Max VN number:   0.25E+00 at (   6,  36,  20)
       Radiation Loss to Boundaries:        17.044 kW
 
       Time Step    1100   October 13, 2020  17:52:36
       Step Size:    0.658E-01 s, Total Time:      92.91 s
       Pressure Iterations:      1
       Maximum Velocity Error:  0.11E-15 on Mesh   1 at (  79  10  15)
       Maximum Pressure Error:  0.74E+02 on Mesh   1 at (  67  14   8)
       ---------------------------------------------------------------
       Mesh    1
       Max CFL number:  0.90E+00 at (  71,  15,  11)
       Max divergence:  0.28E+01 at (  68,  16,   8)
       Min divergence: -0.80E+00 at (  61,  14,  10)
       Max VN number:   0.67E+00 at (  72,  15,  13)
       Total Heat Release Rate:            577.133 kW
       Radiation Loss to Boundaries:      -143.149 kW
       Mesh    2
       Max CFL number:  0.57E+00 at (   5,  35,  15)
       Max divergence:  0.38E-01 at (   6,  32,  14)
       Min divergence: -0.60E-01 at (   5,  35,  15)
       Max VN number:   0.23E+00 at (   5,  35,  15)
       Radiation Loss to Boundaries:        16.796 kW
 
       Time Step    1200   October 13, 2020  17:54:42
       Step Size:    0.570E-01 s, Total Time:      98.63 s
       Pressure Iterations:      1
       Maximum Velocity Error:  0.22E-15 on Mesh   1 at (  79  13  15)
       Maximum Pressure Error:  0.74E+02 on Mesh   1 at (  71  16  15)
       ---------------------------------------------------------------
       Mesh    1
       Max CFL number:  0.79E+00 at (  72,  16,  13)
       Max divergence:  0.31E+01 at (  63,  10,   8)
       Min divergence: -0.10E+01 at (  61,  11,  10)
       Max VN number:   0.53E+00 at (  72,  15,  13)
       Total Heat Release Rate:            524.882 kW
       Radiation Loss to Boundaries:      -136.249 kW
       Mesh    2
       Max CFL number:  0.52E+00 at (   1,  18,  15)
       Max divergence:  0.44E-01 at (   5,  15,  15)
       Min divergence: -0.69E-01 at (   4,  14,  15)
       Max VN number:   0.23E+00 at (   5,  14,  15)
       Total Heat Release Rate:              0.011 kW
       Radiation Loss to Boundaries:        15.272 kW
 
       Time Step    1300   October 13, 2020  17:56:38
       Step Size:    0.554E-01 s, Total Time:     104.45 s
       Pressure Iterations:      1
       Maximum Velocity Error:  0.11E-15 on Mesh   1 at (  79   9  15)
       Maximum Pressure Error:  0.83E+02 on Mesh   1 at (  60  15  15)
       ---------------------------------------------------------------
       Mesh    1
       Max CFL number:  0.81E+00 at (  62,  33,  15)
       Max divergence:  0.56E+01 at (  67,  12,   8)
       Min divergence: -0.85E+00 at (  61,  11,  10)
       Max VN number:   0.47E+00 at (  72,  18,  13)
       Total Heat Release Rate:            631.004 kW
       Radiation Loss to Boundaries:      -164.644 kW
       Mesh    2
       Max CFL number:  0.51E+00 at (   5,  32,  15)
       Max divergence:  0.36E-01 at (   3,  32,  14)
       Min divergence: -0.65E-01 at (   5,  32,  14)
       Max VN number:   0.22E+00 at (   5,  32,  15)
       Radiation Loss to Boundaries:        16.773 kW
 
       Time Step    1400   October 13, 2020  17:58:32
       Step Size:    0.572E-01 s, Total Time:     110.01 s
       Pressure Iterations:      1
       Maximum Velocity Error:  0.11E-15 on Mesh   1 at (  79   9  15)
       Maximum Pressure Error:  0.12E+03 on Mesh   1 at (  66  13   8)
       ---------------------------------------------------------------
       Mesh    1
       Max CFL number:  0.91E+00 at (  61,  13,  10)
       Max divergence:  0.32E+01 at (  70,  19,   8)
       Min divergence: -0.89E+00 at (  61,  13,  11)
       Max VN number:   0.53E+00 at (  72,  14,  13)
       Total Heat Release Rate:            682.918 kW
       Radiation Loss to Boundaries:      -208.271 kW
       Mesh    2
       Max CFL number:  0.58E+00 at (   5,  34,  15)
       Max divergence:  0.72E-01 at (   2,  32,  14)
       Min divergence: -0.10E+00 at (   5,  34,  15)
       Max VN number:   0.26E+00 at (   4,  37,  22)
       Total Heat Release Rate:              0.005 kW
       Radiation Loss to Boundaries:        18.971 kW
 
       Time Step    1500   October 13, 2020  18:00:26
       Step Size:    0.523E-01 s, Total Time:     115.32 s
       Pressure Iterations:      1
       Maximum Velocity Error:  0.11E-15 on Mesh   1 at (  79   7  15)
       Maximum Pressure Error:  0.13E+03 on Mesh   1 at (  60  16  15)
       ---------------------------------------------------------------
       Mesh    1
       Max CFL number:  0.84E+00 at (  61,  15,  10)
       Max divergence:  0.82E+01 at (  64,  13,   8)
       Min divergence: -0.77E+00 at (  64,  19,   9)
       Max VN number:   0.69E+00 at (  72,  17,  13)
       Total Heat Release Rate:            743.555 kW
       Radiation Loss to Boundaries:      -195.732 kW
       Mesh    2
       Max CFL number:  0.50E+00 at (   5,  34,  15)
       Max divergence:  0.57E-01 at (   1,  32,  14)
       Min divergence: -0.78E-01 at (   5,  34,  15)
       Max VN number:   0.22E+00 at (   5,  34,  15)
       Total Heat Release Rate:              0.005 kW
       Radiation Loss to Boundaries:        17.543 kW
 
       Time Step    1600   October 13, 2020  18:02:20
       Step Size:    0.550E-01 s, Total Time:     120.39 s
       Pressure Iterations:      1
       Maximum Velocity Error:  0.11E-15 on Mesh   1 at (  79   9  15)
       Maximum Pressure Error:  0.11E+03 on Mesh   1 at (  60  14  15)
       ---------------------------------------------------------------
       Mesh    1
       Max CFL number:  0.88E+00 at (  61,  15,  10)
       Max divergence:  0.43E+01 at (  66,  13,   8)
       Min divergence: -0.91E+00 at (  70,  16,  10)
       Max VN number:   0.58E+00 at (  72,  16,  13)
       Total Heat Release Rate:            668.832 kW
       Radiation Loss to Boundaries:      -192.223 kW
       Mesh    2
       Max CFL number:  0.54E+00 at (   5,  34,  15)
       Max divergence:  0.56E-01 at (   2,  32,  14)
       Min divergence: -0.74E-01 at (   5,  34,  15)
       Max VN number:   0.27E+00 at (   5,  12,  15)
[...]
       Max divergence:  0.23E+00 at (   4,  12,  14)
       Min divergence: -0.43E+00 at (   5,  32,  15)
       Max VN number:   0.29E+00 at (   5,  12,  15)
       Total Heat Release Rate:              0.143 kW
       Radiation Loss to Boundaries:       312.807 kW
 
       Time Step   16000   October 13, 2020  22:50:55
       Step Size:    0.362E-01 s, Total Time:     654.39 s
       Pressure Iterations:      1
       Maximum Velocity Error:  0.11E-15 on Mesh   1 at (  79   1  10)
       Maximum Pressure Error:  0.31E+03 on Mesh   1 at (  67  10   8)
       ---------------------------------------------------------------
       Mesh    1
       Max CFL number:  0.89E+00 at (  60,  14,  13)
       Max divergence:  0.16E+02 at (  64,  10,   8)
       Min divergence: -0.12E+01 at (  66,   9,  11)
       Max VN number:   0.53E+00 at (  72,  16,  13)
       Total Heat Release Rate:           1551.983 kW
       Radiation Loss to Boundaries:       -70.534 kW
       Mesh    2
       Max CFL number:  0.62E+00 at (   5,  34,  15)
       Max divergence:  0.22E+00 at (   5,  32,  16)
       Min divergence: -0.30E+00 at (   5,  34,  15)
       Max VN number:   0.29E+00 at (   6,  37,  20)
       Total Heat Release Rate:              0.062 kW
       Radiation Loss to Boundaries:       297.965 kW
 
       Time Step   16100   October 13, 2020  22:52:50
       Step Size:    0.340E-01 s, Total Time:     658.21 s
       Pressure Iterations:      1
       Maximum Velocity Error:  0.22E-15 on Mesh   1 at (  79   9  15)
       Maximum Pressure Error:  0.36E+03 on Mesh   1 at (  70  15   8)
       ---------------------------------------------------------------
       Mesh    1
       Max CFL number:  0.80E+00 at (  65,   9,  13)
       Max divergence:  0.17E+02 at (  65,   9,   8)
       Min divergence: -0.16E+01 at (  65,   9,  13)
       Max VN number:   0.57E+00 at (  64,   9,  15)
       Total Heat Release Rate:           1470.412 kW
       Radiation Loss to Boundaries:        48.499 kW
       Mesh    2
       Max CFL number:  0.56E+00 at (   5,  32,  15)
       Max divergence:  0.20E+00 at (   4,  32,  14)
       Min divergence: -0.41E+00 at (   5,  32,  15)
       Max VN number:   0.26E+00 at (   5,  33,  15)
       Total Heat Release Rate:              0.043 kW
       Radiation Loss to Boundaries:       297.837 kW
 
       Time Step   16200   October 13, 2020  22:54:49
       Step Size:    0.393E-01 s, Total Time:     661.72 s
       Pressure Iterations:      1
       Maximum Velocity Error:  0.56E-16 on Mesh   1 at (  79   1   6)
       Maximum Pressure Error:  0.32E+03 on Mesh   1 at (  60  15  15)
       ---------------------------------------------------------------
       Mesh    1
       Max CFL number:  0.94E+00 at (  65,   9,   9)
       Max divergence:  0.11E+02 at (  63,  11,   8)
       Min divergence: -0.26E+01 at (  65,  10,   9)
       Max VN number:   0.56E+00 at (  72,  15,  13)
       Total Heat Release Rate:           1294.030 kW
       Radiation Loss to Boundaries:        62.674 kW
       Mesh    2
       Max CFL number:  0.56E+00 at (   5,  32,  15)
       Max divergence:  0.20E+00 at (   4,  33,  14)
       Min divergence: -0.42E+00 at (   5,  32,  15)
       Max VN number:   0.28E+00 at (   5,  10,  15)
       Total Heat Release Rate:              0.013 kW
       Radiation Loss to Boundaries:       307.777 kW
 
       Time Step   16300   October 13, 2020  22:56:48
       Step Size:    0.362E-01 s, Total Time:     665.44 s
       Pressure Iterations:      4
       Maximum Velocity Error:  0.22E-15 on Mesh   1 at (  79  14  15)
       Maximum Pressure Error:  0.55E+03 on Mesh   1 at (  60  15  15)
       ---------------------------------------------------------------
       Mesh    1
       Max CFL number:  0.88E+00 at (  61,  15,  10)
       Max divergence:  0.94E+01 at (  61,  13,   8)
       Min divergence: -0.17E+01 at (  62,  13,  10)
       Max VN number:   0.61E+00 at (  59,  16,  13)
       Total Heat Release Rate:           1411.273 kW
       Radiation Loss to Boundaries:       -12.605 kW
       Mesh    2
       Max CFL number:  0.53E+00 at (   5,  32,  15)
       Max divergence:  0.15E+00 at (   5,  33,  14)
       Min divergence: -0.39E+00 at (   5,  32,  15)
       Max VN number:   0.25E+00 at (   6,  35,  20)
       Total Heat Release Rate:              0.012 kW
       Radiation Loss to Boundaries:       303.454 kW
 
       Time Step   16400   October 13, 2020  22:58:47
       Step Size:    0.367E-01 s, Total Time:     668.96 s
       Pressure Iterations:      2
       Maximum Velocity Error:  0.22E-15 on Mesh   1 at (  79  13  15)
       Maximum Pressure Error:  0.30E+03 on Mesh   1 at (  60  16  15)
       ---------------------------------------------------------------
       Mesh    1
       Max CFL number:  0.84E+00 at (  72,  16,  13)
       Max divergence:  0.81E+01 at (  71,  13,   8)
       Min divergence: -0.12E+01 at (  64,   9,  11)
       Max VN number:   0.53E+00 at (  72,  16,  13)
       Total Heat Release Rate:           1511.166 kW
       Radiation Loss to Boundaries:         4.663 kW
       Mesh    2
       Max CFL number:  0.49E+00 at (   5,  32,  15)
       Max divergence:  0.26E+00 at (   5,  16,  15)
       Min divergence: -0.33E+00 at (   5,  32,  15)
       Max VN number:   0.26E+00 at (   5,  32,  15)
       Total Heat Release Rate:              0.075 kW
       Radiation Loss to Boundaries:       329.779 kW
 
       Time Step   16500   October 13, 2020  23:00:42
       Step Size:    0.394E-01 s, Total Time:     672.73 s
       Pressure Iterations:      1
       Maximum Velocity Error:  0.11E-15 on Mesh   1 at (  79  14  14)
       Maximum Pressure Error:  0.37E+03 on Mesh   1 at (  60  15  15)
       ---------------------------------------------------------------
       Mesh    1
       Max CFL number:  0.90E+00 at (  72,  16,  12)
       Max divergence:  0.12E+02 at (  62,  14,   8)
       Min divergence: -0.13E+01 at (  63,  11,   8)
       Max VN number:   0.60E+00 at (  72,  16,  13)
       Total Heat Release Rate:           1402.353 kW
       Radiation Loss to Boundaries:        40.352 kW
       Mesh    2
       Max CFL number:  0.62E+00 at (   5,  32,  15)
       Max divergence:  0.31E+00 at (   5,  33,  14)
       Min divergence: -0.48E+00 at (   5,  32,  15)
       Max VN number:   0.31E+00 at (   5,  32,  15)
       Total Heat Release Rate:              0.071 kW
       Radiation Loss to Boundaries:       307.719 kW
 
       Time Step   16600   October 13, 2020  23:02:39
       Step Size:    0.326E-01 s, Total Time:     676.29 s
       Pressure Iterations:      1
       Maximum Velocity Error:  0.11E-15 on Mesh   1 at (  79  12  10)
       Maximum Pressure Error:  0.27E+03 on Mesh   1 at (  64   8   8)
       ---------------------------------------------------------------
       Mesh    1
       Max CFL number:  0.92E+00 at (  65,   9,   9)
       Max divergence:  0.20E+02 at (  64,   8,   8)
       Min divergence: -0.17E+01 at (  64,   8,  10)
       Max VN number:   0.57E+00 at (  64,   9,  10)
       Total Heat Release Rate:           1450.609 kW
       Radiation Loss to Boundaries:       -14.869 kW
       Mesh    2
       Max CFL number:  0.58E+00 at (   5,  32,  15)
       Max divergence:  0.20E+00 at (   2,  32,  14)
       Min divergence: -0.58E+00 at (   5,  32,  15)
       Max VN number:   0.25E+00 at (   5,  33,  15)
       Total Heat Release Rate:              0.032 kW
       Radiation Loss to Boundaries:       296.567 kW
 
       Time Step   16700   October 13, 2020  23:04:35
       Step Size:    0.369E-01 s, Total Time:     679.93 s
       Pressure Iterations:      1
       Maximum Velocity Error:  0.22E-15 on Mesh   1 at (  79  19  15)
       Maximum Pressure Error:  0.42E+03 on Mesh   1 at (  71  14  15)
       ---------------------------------------------------------------
       Mesh    1
       Max CFL number:  0.95E+00 at (  72,  15,  12)
       Max divergence:  0.76E+01 at (  61,  15,   8)
       Min divergence: -0.18E+01 at (  72,  15,  11)
       Max VN number:   0.58E+00 at (  72,  14,  13)
       Total Heat Release Rate:           1468.496 kW
       Radiation Loss to Boundaries:        58.919 kW
       Mesh    2
       Max CFL number:  0.62E+00 at (   5,  32,  15)
       Max divergence:  0.28E+00 at (   4,  32,  14)
       Min divergence: -0.58E+00 at (   5,  32,  15)
       Max VN number:   0.32E+00 at (   5,  32,  15)
       Total Heat Release Rate:              0.046 kW
       Radiation Loss to Boundaries:       354.229 kW
 
       Time Step   16800   October 13, 2020  23:06:33
       Step Size:    0.368E-01 s, Total Time:     683.73 s
       Pressure Iterations:      1
       Maximum Velocity Error:  0.22E-15 on Mesh   1 at (  79  11  15)
       Maximum Pressure Error:  0.29E+03 on Mesh   1 at (  71  16  15)
       ---------------------------------------------------------------
       Mesh    1
       Max CFL number:  0.80E+00 at (  60,   1,  15)
       Max divergence:  0.68E+01 at (  66,  10,   9)
       Min divergence: -0.22E+01 at (  66,   9,  10)
       Max VN number:   0.55E+00 at (  72,  15,  13)
       Total Heat Release Rate:           1402.166 kW
       Radiation Loss to Boundaries:       -45.827 kW
       Mesh    2
       Max CFL number:  0.63E+00 at (   5,  33,  15)
       Max divergence:  0.20E+00 at (   5,  34,  14)
       Min divergence: -0.50E+00 at (   5,  33,  15)
       Max VN number:   0.28E+00 at (   5,  33,  15)
       Total Heat Release Rate:              0.123 kW
       Radiation Loss to Boundaries:       323.975 kW
 
       Time Step   16900   October 13, 2020  23:08:37
       Step Size:    0.382E-01 s, Total Time:     687.08 s
       Pressure Iterations:      1
       Maximum Velocity Error:  0.22E-15 on Mesh   1 at (  79  20  15)
       Maximum Pressure Error:  0.38E+03 on Mesh   1 at (  66   9   8)
       ---------------------------------------------------------------
       Mesh    1
       Max CFL number:  0.85E+00 at (  71,  13,   8)
       Max divergence:  0.92E+01 at (  71,  13,   8)
       Min divergence: -0.14E+01 at (  72,  13,  11)
       Max VN number:   0.58E+00 at (  66,   7,  15)
       Total Heat Release Rate:           1417.589 kW
       Radiation Loss to Boundaries:       -36.037 kW
       Mesh    2
       Max CFL number:  0.66E+00 at (   5,  32,  15)
       Max divergence:  0.27E+00 at (   5,  32,  16)
       Min divergence: -0.54E+00 at (   5,  32,  15)
       Max VN number:   0.29E+00 at (   5,  33,  15)
       Total Heat Release Rate:              0.135 kW
       Radiation Loss to Boundaries:       280.994 kW
 
       Time Step   17000   October 13, 2020  23:10:34
       Step Size:    0.350E-01 s, Total Time:     690.54 s
       Pressure Iterations:      1
       Maximum Velocity Error:  0.11E-15 on Mesh   1 at (  79  27  15)
       Maximum Pressure Error:  0.30E+03 on Mesh   1 at (  60  16  15)
       ---------------------------------------------------------------
       Mesh    1
       Max CFL number:  0.85E+00 at (  66,   8,  13)
       Max divergence:  0.77E+01 at (  67,  11,   8)
       Min divergence: -0.25E+01 at (  66,   9,   8)
       Max VN number:   0.62E+00 at (  72,  18,  13)
       Total Heat Release Rate:           1180.902 kW
       Radiation Loss to Boundaries:       203.942 kW
       Mesh    2
       Max CFL number:  0.57E+00 at (   5,  32,  15)
       Max divergence:  0.22E+00 at (   4,  32,  14)
       Min divergence: -0.45E+00 at (   5,  32,  15)
       Max VN number:   0.29E+00 at (   5,  32,  15)
       Total Heat Release Rate:              0.018 kW
       Radiation Loss to Boundaries:       375.941 kW
 
       Time Step   17100   October 13, 2020  23:12:29
       Step Size:    0.312E-01 s, Total Time:     694.28 s
       Pressure Iterations:      1
       Maximum Velocity Error:  0.22E-15 on Mesh   1 at (  79  20  15)
       Maximum Pressure Error:  0.34E+03 on Mesh   1 at (  66   9   8)
       ---------------------------------------------------------------
       Mesh    1
       Max CFL number:  0.79E+00 at (  66,   9,   9)
       Max divergence:  0.13E+02 at (  64,   9,   8)
       Min divergence: -0.12E+01 at (  66,   9,  11)
       Max VN number:   0.53E+00 at (  72,  15,  13)
       Total Heat Release Rate:           1545.149 kW
       Radiation Loss to Boundaries:       -61.765 kW
       Mesh    2
       Max CFL number:  0.60E+00 at (   5,  33,  15)
       Max divergence:  0.28E+00 at (   6,  13,  12)
       Min divergence: -0.48E+00 at (   5,  32,  15)
       Max VN number:   0.27E+00 at (   5,  14,  15)
       Total Heat Release Rate:              0.289 kW
       Radiation Loss to Boundaries:       319.502 kW
 
       Time Step   17200   October 13, 2020  23:14:29
       Step Size:    0.357E-01 s, Total Time:     698.00 s
       Pressure Iterations:      2
       Maximum Velocity Error:  0.11E-15 on Mesh   1 at (  79   4  15)
       Maximum Pressure Error:  0.30E+03 on Mesh   1 at (  71  15  15)
       ---------------------------------------------------------------
       Mesh    1
       Max CFL number:  0.79E+00 at (  67,   8,  14)
       Max divergence:  0.68E+01 at (  62,  13,   8)
       Min divergence: -0.13E+01 at (  68,   9,  10)
       Max VN number:   0.59E+00 at (  69,   9,   8)
       Total Heat Release Rate:           1298.984 kW
       Radiation Loss to Boundaries:        17.617 kW
       Mesh    2
       Max CFL number:  0.64E+00 at (   5,  32,  15)
       Max divergence:  0.24E+00 at (   5,  34,  14)
       Min divergence: -0.41E+00 at (   5,  32,  14)
       Max VN number:   0.32E+00 at (   5,  14,  15)
       Total Heat Release Rate:              0.254 kW
       Radiation Loss to Boundaries:       305.577 kW
 
       Time Step   17300   October 13, 2020  23:16:27
       Step Size:    0.353E-01 s, Total Time:     701.95 s
       Pressure Iterations:      1
       Maximum Velocity Error:  0.22E-15 on Mesh   1 at (  79  11  15)
       Maximum Pressure Error:  0.28E+03 on Mesh   1 at (  71  15  15)
       ---------------------------------------------------------------
       Mesh    1
       Max CFL number:  0.93E+00 at (  67,   9,  12)
       Max divergence:  0.14E+02 at (  70,  13,   8)
       Min divergence: -0.17E+01 at (  67,   9,  13)
       Max VN number:   0.61E+00 at (  68,   8,  15)
       Total Heat Release Rate:           1494.428 kW
       Radiation Loss to Boundaries:       103.754 kW
       Mesh    2
       Max CFL number:  0.62E+00 at (   5,  32,  15)
       Max divergence:  0.20E+00 at (   4,  13,  12)
       Min divergence: -0.49E+00 at (   5,  32,  15)
       Max VN number:   0.28E+00 at (   5,  32,  15)
       Total Heat Release Rate:              0.068 kW
       Radiation Loss to Boundaries:       385.815 kW
 
       Time Step   17400   October 13, 2020  23:18:25
       Step Size:    0.372E-01 s, Total Time:     705.55 s
       Pressure Iterations:      1
       Maximum Velocity Error:  0.11E-15 on Mesh   1 at (  79   1  11)
       Maximum Pressure Error:  0.48E+03 on Mesh   1 at (  60  14  15)
       ---------------------------------------------------------------
       Mesh    1
       Max CFL number:  0.88E+00 at (  61,  14,  10)
       Max divergence:  0.72E+01 at (  62,  11,   8)
       Min divergence: -0.19E+01 at (  59,  15,  13)
       Max VN number:   0.57E+00 at (  59,  14,  13)
       Total Heat Release Rate:           1274.076 kW
       Radiation Loss to Boundaries:        47.108 kW
       Mesh    2
       Max CFL number:  0.55E+00 at (   5,  32,  15)
       Max divergence:  0.37E+00 at (   5,  32,  14)
       Min divergence: -0.52E+00 at (   5,  32,  15)
       Max VN number:   0.30E+00 at (   5,  32,  15)
       Total Heat Release Rate:              0.011 kW
       Radiation Loss to Boundaries:       334.694 kW
 
       Time Step   17500   October 13, 2020  23:20:23
       Step Size:    0.329E-01 s, Total Time:     709.08 s
       Pressure Iterations:      1
       Maximum Velocity Error:  0.22E-15 on Mesh   1 at (  79  13  15)
       Maximum Pressure Error:  0.45E+03 on Mesh   1 at (  71  17  15)
       ---------------------------------------------------------------
       Mesh    1
       Max CFL number:  0.85E+00 at (  72,  17,  12)
       Max divergence:  0.84E+01 at (  71,  16,   8)
       Min divergence: -0.16E+01 at (  65,   9,   8)
       Max VN number:   0.58E+00 at (  72,  17,  13)
       Total Heat Release Rate:           1343.218 kW
       Radiation Loss to Boundaries:        90.987 kW
       Mesh    2
       Max CFL number:  0.50E+00 at (   5,  32,  15)
       Max divergence:  0.21E+00 at (   5,  13,  15)
       Min divergence: -0.45E+00 at (   5,  32,  15)
       Max VN number:   0.26E+00 at (   5,  32,  15)
       Total Heat Release Rate:              0.039 kW
       Radiation Loss to Boundaries:       327.513 kW
 
       Time Step   17600   October 13, 2020  23:22:20
       Step Size:    0.364E-01 s, Total Time:     712.53 s
       Pressure Iterations:      1
       Maximum Velocity Error:  0.11E-15 on Mesh   1 at (  79   9   9)
       Maximum Pressure Error:  0.32E+03 on Mesh   1 at (  71  15  15)
       ---------------------------------------------------------------
       Mesh    1
       Max CFL number:  0.86E+00 at (  61,  15,  13)
       Max divergence:  0.14E+02 at (  70,  12,   8)
       Min divergence: -0.15E+01 at (  63,   9,  10)
       Max VN number:   0.63E+00 at (  72,  15,  13)
       Total Heat Release Rate:           1359.495 kW
       Radiation Loss to Boundaries:        93.636 kW
       Mesh    2
       Max CFL number:  0.66E+00 at (   5,  33,  15)
       Max divergence:  0.30E+00 at (   4,  20,  14)
       Min divergence: -0.60E+00 at (   5,  32,  14)
       Max VN number:   0.29E+00 at (   5,  33,  15)
       Total Heat Release Rate:              0.471 kW
       Radiation Loss to Boundaries:       370.640 kW
 
       Time Step   17700   October 13, 2020  23:24:16
       Step Size:    0.405E-01 s, Total Time:     716.08 s
       Pressure Iterations:      1
       Maximum Velocity Error:  0.11E-15 on Mesh   1 at (  79  17  14)
       Maximum Pressure Error:  0.29E+03 on Mesh   1 at (  71  16  15)
       ---------------------------------------------------------------
       Mesh    1
       Max CFL number:  0.85E+00 at (  60,   1,  15)
       Max divergence:  0.10E+02 at (  70,  12,   8)
       Min divergence: -0.10E+01 at (  72,  12,  10)
       Max VN number:   0.58E+00 at (  72,  14,  13)
       Total Heat Release Rate:           1267.898 kW
       Radiation Loss to Boundaries:       109.870 kW
       Mesh    2
       Max CFL number:  0.70E+00 at (   5,   1,  15)
       Max divergence:  0.24E+00 at (   6,  15,  12)
       Min divergence: -0.38E+00 at (   5,  33,  15)
       Max VN number:   0.34E+00 at (   5,  14,  15)
       Total Heat Release Rate:              0.339 kW
       Radiation Loss to Boundaries:       338.962 kW
 
       Time Step   17800   October 13, 2020  23:26:11
       Step Size:    0.357E-01 s, Total Time:     719.99 s
       Pressure Iterations:      1
       Maximum Velocity Error:  0.22E-15 on Mesh   1 at (  79  10  15)
       Maximum Pressure Error:  0.38E+03 on Mesh   1 at (  71  15  15)
       ---------------------------------------------------------------
       Mesh    1
       Max CFL number:  0.90E+00 at (  72,  15,  13)
       Max divergence:  0.88E+01 at (  71,  15,   8)
       Min divergence: -0.15E+01 at (  64,   9,  11)
       Max VN number:   0.60E+00 at (  72,  16,  13)
       Total Heat Release Rate:           1306.116 kW
       Radiation Loss to Boundaries:       122.161 kW
       Mesh    2
       Max CFL number:  0.74E+00 at (   5,  33,  15)
       Max divergence:  0.31E+00 at (   5,  34,  14)
       Min divergence: -0.58E+00 at (   5,  32,  14)
       Max VN number:   0.33E+00 at (   5,  33,  15)
       Total Heat Release Rate:              0.233 kW
       Radiation Loss to Boundaries:       387.291 kW
 
