
 Fire Dynamics Simulator

 Current Date     : July  1, 2020  14:01:33
 Revision         : -AMG
 Revision Date    : Wed Jul 1 10:00:09 2020 +0200
 Compiler         : Intel ifort 19.0.5.281
 Compilation Date : Jul 01, 2020 11:44:45

 MPI Enabled;    Number of MPI Processes:       8
 OpenMP Enabled; Number of OpenMP Threads:      2

 MPI version: 3.1
 MPI library version: Intel(R) MPI Library 2018 Update 1 for Linux* OS


 Job TITLE        : Example of a tunnel simulation
 Job ID string    : tunnel_demo_glmat


 Grid Dimensions, Mesh     1

   Cells in the X Direction            80
   Cells in the Y Direction            20
   Cells in the Z Direction            20
   Number of Grid Cells             32000


 Physical Dimensions, Mesh     1

   Length (m)                      16.000
   Width  (m)                       4.000
   Height (m)                       4.000
   Initial Time Step (s)            0.158

 Grid Dimensions, Mesh     2

   Cells in the X Direction            80
   Cells in the Y Direction            20
   Cells in the Z Direction            20
   Number of Grid Cells             32000


 Physical Dimensions, Mesh     2

   Length (m)                      16.000
   Width  (m)                       4.000
   Height (m)                       4.000
   Initial Time Step (s)            0.158

 Grid Dimensions, Mesh     3

   Cells in the X Direction            80
   Cells in the Y Direction            20
   Cells in the Z Direction            20
   Number of Grid Cells             32000


 Physical Dimensions, Mesh     3

   Length (m)                      16.000
   Width  (m)                       4.000
   Height (m)                       4.000
   Initial Time Step (s)            0.158

 Grid Dimensions, Mesh     4

   Cells in the X Direction            80
   Cells in the Y Direction            20
   Cells in the Z Direction            20
   Number of Grid Cells             32000


 Physical Dimensions, Mesh     4

   Length (m)                      16.000
   Width  (m)                       4.000
   Height (m)                       4.000
   Initial Time Step (s)            0.158

 Grid Dimensions, Mesh     5

   Cells in the X Direction            80
   Cells in the Y Direction            20
   Cells in the Z Direction            20
   Number of Grid Cells             32000


 Physical Dimensions, Mesh     5

   Length (m)                      16.000
   Width  (m)                       4.000
   Height (m)                       4.000
   Initial Time Step (s)            0.158

 Grid Dimensions, Mesh     6

   Cells in the X Direction            80
   Cells in the Y Direction            20
   Cells in the Z Direction            20
   Number of Grid Cells             32000


 Physical Dimensions, Mesh     6

   Length (m)                      16.000
   Width  (m)                       4.000
   Height (m)                       4.000
   Initial Time Step (s)            0.158

 Grid Dimensions, Mesh     7

   Cells in the X Direction            80
   Cells in the Y Direction            20
   Cells in the Z Direction            20
   Number of Grid Cells             32000


 Physical Dimensions, Mesh     7

   Length (m)                      16.000
   Width  (m)                       4.000
   Height (m)                       4.000
   Initial Time Step (s)            0.158

 Grid Dimensions, Mesh     8

   Cells in the X Direction            80
   Cells in the Y Direction            20
   Cells in the Z Direction            20
   Number of Grid Cells             32000


 Physical Dimensions, Mesh     8

   Length (m)                      16.000
   Width  (m)                       4.000
   Height (m)                       4.000
   Initial Time Step (s)            0.158

Total Number of Grid Cells        256000


 Miscellaneous Parameters

   Simulation Start Time (s)          0.0
   Simulation End Time (s)           30.0
   LES Calculation
   Eddy Viscosity:           Deardorff Model (C_DEARDORFF = 0.10)
   Near-wall Eddy Viscosity: Smagorinsky with Van Driest damping (C_SMAGORINSKY = 0.20)
   Turbulent Prandtl Number:         0.50
   Turbulent Schmidt Number:         0.50
   Ambient Temperature (C):         20.00


 Mass Fraction Transformation Matrix to Convert Species Mixtures (Columns) to Primitive Species (Rows)

                         AIR       PROPANE   PRODUCTS
   PROPANE               0.000000  1.000000  0.000000
   NITROGEN              0.762470  0.000000  0.716347
   OXYGEN                0.230997  0.000000  0.000000
   CARBON DIOXIDE        0.000591  0.000000  0.178383
   CARBON MONOXIDE       0.000000  0.000000  0.000000
   WATER VAPOR           0.005941  0.000000  0.104363
   SOOT                  0.000000  0.000000  0.000907
   HYDROGEN              0.000000  0.000000  0.000000


 Primitive Species Information

   PROPANE
   Gas Species
   Molecular Weight (g/mol)            44.09562
   Ambient Density (kg/m^3)            1.833
   Enthalpy of Formation (J/kg)       -2.37E+06

   NITROGEN
   Gas Species
   Molecular Weight (g/mol)            28.01340
   Ambient Density (kg/m^3)            1.165
   Enthalpy of Formation (J/kg)        0.00E+00

   OXYGEN
   Gas Species
   Molecular Weight (g/mol)            31.99880
   Ambient Density (kg/m^3)            1.330
   Enthalpy of Formation (J/kg)        0.00E+00

   CARBON DIOXIDE
   Gas Species
   Molecular Weight (g/mol)            44.00950
   Ambient Density (kg/m^3)            1.830
   Enthalpy of Formation (J/kg)       -8.94E+06

   CARBON MONOXIDE
   Gas Species
   Molecular Weight (g/mol)            28.01010
   Ambient Density (kg/m^3)            1.164
   Enthalpy of Formation (J/kg)       -3.95E+06

   WATER VAPOR
   Gas Species
   Molecular Weight (g/mol)            18.01528
   Ambient Density (kg/m^3)            0.749
   Enthalpy of Formation (J/kg)       -1.34E+07

   SOOT
   Gas Species
   Molecular Weight (g/mol)            10.91042
   Ambient Density (kg/m^3)            0.454
   Enthalpy of Formation (J/kg)        0.00E+00

   HYDROGEN
   Gas Species
   Molecular Weight (g/mol)             2.01588
   Ambient Density (kg/m^3)            0.084
   Enthalpy of Formation (J/kg)        0.00E+00


 Tracked (Lumped) Species Information

   AIR
   Molecular Weight (g/mol)            28.75199
   Ambient Density (kg/m^3)            1.195
   Initial Mass Fraction               1.000
   Enthalpy of Formation (J/kg)     -8.50E+04

   Sub Species                    Mass Fraction     Mole Fraction
   NITROGEN                       7.624701E-01      7.825730E-01
   OXYGEN                         2.309974E-01      2.075589E-01
   CARBON DIOXIDE                 5.914651E-04      3.864120E-04
   WATER VAPOR                    5.940984E-03      9.481679E-03
 
     Viscosity (kg/m/s) Ambient,  293 K:  1.80E-05
                                  500 K:  2.61E-05
                                 1000 K:  4.13E-05
                                 1500 K:  5.37E-05
   Therm. Cond. (W/m/K) Ambient,  293 K:  2.56E-02
                                  500 K:  3.81E-02
                                 1000 K:  6.69E-02
                                 1500 K:  9.25E-02
        Enthalpy (J/kg) Ambient,  293 K: -9.01E+04
                                  500 K:  1.22E+05
                                 1000 K:  6.72E+05
                                 1500 K:  1.27E+06
    Spec. Heat (J/kg/K) Ambient,  293 K:  1.02E+03
                                  500 K:  1.04E+03
                                 1000 K:  1.16E+03
                                 1500 K:  1.23E+03
   Diff. Coeff. (m^2/s) Ambient,  293 K:  1.99E-05
                                  500 K:  4.96E-05
                                 1000 K:  1.58E-04
                                 1500 K:  3.09E-04

   PROPANE
   Molecular Weight (g/mol)            44.09562
   Ambient Density (kg/m^3)            1.833
   Initial Mass Fraction               0.000
   Enthalpy of Formation (J/kg)     -2.37E+06

   Sub Species                    Mass Fraction     Mole Fraction
   PROPANE                        1.000000E+00      1.000000E+00
 
     Viscosity (kg/m/s) Ambient,  293 K:  8.08E-06
                                  500 K:  1.31E-05
                                 1000 K:  2.23E-05
                                 1500 K:  2.96E-05
   Therm. Cond. (W/m/K) Ambient,  293 K:  1.66E-02
                                  500 K:  4.18E-02
                                 1000 K:  1.11E-01
                                 1500 K:  1.72E-01
        Enthalpy (J/kg) Ambient,  293 K: -2.38E+06
                                  500 K: -1.95E+06
                                 1000 K: -2.77E+05
                                 1500 K:  1.90E+06
    Spec. Heat (J/kg/K) Ambient,  293 K:  1.65E+03
                                  500 K:  2.55E+03
                                 1000 K:  3.96E+03
                                 1500 K:  4.67E+03
   Diff. Coeff. (m^2/s) Ambient,  293 K:  1.11E-05
                                  500 K:  2.86E-05
                                 1000 K:  9.32E-05
                                 1500 K:  1.83E-04

   PRODUCTS
   Molecular Weight (g/mol)            28.16819
   Ambient Density (kg/m^3)            1.171
   Initial Mass Fraction               0.000
   Enthalpy of Formation (J/kg)     -3.00E+06

   Sub Species                    Mass Fraction     Mole Fraction
   NITROGEN                       7.163468E-01      7.203050E-01
   CARBON DIOXIDE                 1.783831E-01      1.141737E-01
   CARBON MONOXIDE                0.000000E+00      0.000000E+00
   WATER VAPOR                    1.043628E-01      1.631787E-01
   SOOT                           9.073796E-04      2.342644E-03
 
     Viscosity (kg/m/s) Ambient,  293 K:  1.61E-05
                                  500 K:  2.39E-05
                                 1000 K:  3.89E-05
                                 1500 K:  5.14E-05
   Therm. Cond. (W/m/K) Ambient,  293 K:  2.34E-02
                                  500 K:  3.62E-02
                                 1000 K:  6.71E-02
                                 1500 K:  9.63E-02
        Enthalpy (J/kg) Ambient,  293 K: -3.00E+06
                                  500 K: -2.77E+06
                                 1000 K: -2.16E+06
                                 1500 K: -1.48E+06
    Spec. Heat (J/kg/K) Ambient,  293 K:  1.09E+03
                                  500 K:  1.14E+03
                                 1000 K:  1.30E+03
                                 1500 K:  1.40E+03
   Diff. Coeff. (m^2/s) Ambient,  293 K:  1.95E-05
                                  500 K:  4.96E-05
                                 1000 K:  1.60E-04
                                 1500 K:  3.15E-04


 Gas Phase Reaction Information

   Fuel                                           Heat of Combustion (kJ/kg)
   PROPANE                                                        45831.0920

   Stoichiometry

   Primitive Species Stoich. Coeff.
   Species ID                                                          Molar
   PROPANE                                                         -1.000000
   OXYGEN                                                          -4.943923
   CARBON DIOXIDE                                                   2.945438
   WATER VAPOR                                                      3.996969
   SOOT                                                             0.060624

   Tracked (Lumped) Species Stoich. Coeff.
   Species ID                                             Molar         Mass
   AIR                                               -23.819373   -15.531119
   PROPANE                                            -1.000000    -1.000000
   PRODUCTS                                           25.878481    16.531119

   Reaction Kinetics

   Arrhenius Parameters
   Pre-exponential:    Infinite
   Activation Energy:  N/A

   ODE Solver:  EXPLICIT EULER
   Extinction Model:  EXTINCTION 2
   Auto-Ignition Temperature (K):       0.0
   Critical Flame Temperature (K):   1720.2


 Material Information


 Surface Conditions

   0 INERT (DEFAULT)

   1 fire
     HRR Per Unit Area (kW/m2)       2000.0
     PROPANE Mass Flux (kg/s/m2)   4.36E-02

   2 OPEN
     Passive Vent to Atmosphere

   3 MIRROR
     Symmetry Plane

   4 INTERPOLATED

   5 PERIODIC

   6 HVAC

   7 MASSLESS TRACER

   8 DROPLET

   9 EVACUATION_OUTFLOW
     Normal Velocity (m/s)         0.000

  10 MASSLESS TARGET

  11 PERIODIC WIND


 Device Coordinates

     1 Coords:      0.002000      0.000000      0.002000, Make: null, ID: cpu, Quantity: CPU TIME


 Slice File Information, Mesh     1

   Sampling Interval (s)             0.030

   1 Nodes:   0  80  10  10   0  20, Quantity: TEMPERATURE
   2 Nodes:   0  80  10  10   0  20, Quantity: U-VELOCITY
   3 Nodes:   0  80  10  10   0  20, Quantity: V-VELOCITY
   4 Nodes:   0  80  10  10   0  20, Quantity: W-VELOCITY
   5 Nodes:   0  80  11  11   0  20, Quantity: H


 Radiation Model Information

   Number of control angles  104
   Time step increment         3
   Angle increment             5
   Theta band N_phi   Solid angle
     1:        4     0.120
     2:       12     0.114
     3:       16     0.127
     4:       20     0.120
     5:       20     0.120
     6:       16     0.127
     7:       12     0.114
     8:        4     0.120
   Using gray gas absorption.
   Mean beam length  0.100 m


 GlMat Information

   Global Pressure solver       : Intel MKL Cluster Sparse Solver
 
 
   Using GLMAT as pressure solver. List of H unknown numbers per proc:
    MPI Process, H unknowns =           0       32000 , Peak Factorization Memory Required (MB)=         155

 Run Time Diagnostics

       Time Step       1   July  1, 2020  14:01:35
       Step Size:    0.158E+00 s, Total Time:       0.16 s
       Pressure Iterations:      1
       Maximum Velocity Error:  0.12E-17 on Mesh   2 at (  81  17   2)
       Maximum Pressure Error:  0.73E+00 on Mesh   3 at (  41  11   1)
       ---------------------------------------------------------------
       Mesh    1
       Max CFL number:  0.15E-01 at (  54,  16,  12)
       Max divergence:  0.12E-05 at (  54,  16,  14)
       Min divergence: -0.12E-05 at (  17,  18,  10)
       Max VN number:   0.11E-01 at (  17,  11,   8)
       Mesh    2
       Max CFL number:  0.15E-01 at (  57,  10,   4)
       Max divergence:  0.12E-05 at (  12,   3,  16)
       Min divergence: -0.13E-05 at (   4,   2,  16)
       Max VN number:   0.12E-01 at (  57,  12,   4)
       Radiation Loss to Boundaries:        -0.001 kW
       Mesh    3
       Max CFL number:  0.15E-01 at (  36,   8,  15)
       Max divergence:  0.20E-05 at (  41,  13,   2)
       Min divergence: -0.13E-02 at (  50,  10,   1)
       Max VN number:   0.11E-01 at (  56,  17,  10)
       Radiation Loss to Boundaries:        -0.001 kW
       Mesh    4
       Max CFL number:  0.15E-01 at (  24,   4,   9)
       Max divergence:  0.12E-05 at (  76,  17,  16)
       Min divergence: -0.12E-05 at (  55,  18,  11)
       Max VN number:   0.11E-01 at (  45,   3,   7)
       Radiation Loss to Boundaries:        -0.001 kW
       Mesh    5
       Max CFL number:  0.16E-01 at (  21,   7,   8)
       Max divergence:  0.13E-05 at (  77,  10,  15)
       Min divergence: -0.12E-05 at (   3,   8,  11)
       Max VN number:   0.11E-01 at (  59,  11,   8)
       Radiation Loss to Boundaries:        -0.001 kW
       Mesh    6
       Max CFL number:  0.15E-01 at (  79,  18,   7)
       Max divergence:  0.12E-05 at (  55,   2,   3)
       Min divergence: -0.12E-05 at (  78,  15,  10)
       Max VN number:   0.11E-01 at (  78,  15,   2)
       Radiation Loss to Boundaries:        -0.001 kW
       Mesh    7
       Max CFL number:  0.15E-01 at (  22,  18,   8)
       Max divergence:  0.12E-05 at (  47,  10,  11)
       Min divergence: -0.12E-05 at (  79,  11,  10)
       Max VN number:   0.11E-01 at (  65,   9,   8)
       Radiation Loss to Boundaries:        -0.001 kW
       Mesh    8
       Max CFL number:  0.15E-01 at (  20,  19,  15)
       Max divergence:  0.11E-05 at (  55,  12,  15)
       Min divergence: -0.12E-05 at (  18,   6,  11)
       Max VN number:   0.11E-01 at (  31,  15,  12)
 
       Time Step       2   July  1, 2020  14:01:35
       Step Size:    0.158E+00 s, Total Time:       0.32 s
       Pressure Iterations:      2
       Maximum Velocity Error:  0.28E-16 on Mesh   7 at (  81   7  17)
       Maximum Pressure Error:  0.59E+01 on Mesh   3 at (  44  12   1)
       ---------------------------------------------------------------
       Mesh    1
       Max CFL number:  0.15E-01 at (  54,  16,  12)
       Max divergence:  0.12E-05 at (  54,  16,  14)
       Min divergence: -0.12E-05 at (  17,  18,  10)
       Max VN number:   0.11E-01 at (  17,  11,   8)
       Mesh    2
       Max CFL number:  0.15E-01 at (  57,  10,   4)
       Max divergence:  0.12E-05 at (  12,   3,  16)
       Min divergence: -0.13E-05 at (   4,   2,  16)
       Max VN number:   0.12E-01 at (  57,  12,   4)
       Radiation Loss to Boundaries:        -0.001 kW
       Mesh    3
       Max CFL number:  0.16E-01 at (  57,   7,   5)
       Max divergence:  0.35E+01 at (  42,   8,   1)
       Min divergence: -0.11E-05 at (  22,  10,   8)
       Max VN number:   0.11E-01 at (  56,  17,  10)
       Total Heat Release Rate:           1005.003 kW
       Radiation Loss to Boundaries:        -0.001 kW
       Mesh    4
       Max CFL number:  0.16E-01 at (  24,   4,   9)
       Max divergence:  0.12E-05 at (  76,  17,  16)
       Min divergence: -0.12E-05 at (  55,  18,  11)
       Max VN number:   0.11E-01 at (  45,   3,   7)
       Radiation Loss to Boundaries:        -0.001 kW
       Mesh    5
       Max CFL number:  0.16E-01 at (  21,   7,   8)
       Max divergence:  0.13E-05 at (  77,  10,  15)
       Min divergence: -0.12E-05 at (   3,   8,  11)
       Max VN number:   0.11E-01 at (  59,  11,   8)
       Radiation Loss to Boundaries:        -0.001 kW
       Mesh    6
       Max CFL number:  0.16E-01 at (  79,  18,   7)
       Max divergence:  0.12E-05 at (  55,   2,   3)
       Min divergence: -0.12E-05 at (  78,  15,  10)
       Max VN number:   0.11E-01 at (  78,  15,   2)
       Radiation Loss to Boundaries:        -0.001 kW
       Mesh    7
       Max CFL number:  0.15E-01 at (  55,   4,   9)
       Max divergence:  0.12E-05 at (  47,  10,  11)
       Min divergence: -0.12E-05 at (  79,  11,  10)
       Max VN number:   0.11E-01 at (  65,   9,   8)
       Radiation Loss to Boundaries:        -0.001 kW
       Mesh    8
       Max CFL number:  0.15E-01 at (  56,  15,  17)
       Max divergence:  0.11E-05 at (  55,  12,  15)
       Min divergence: -0.12E-05 at (  18,   6,  11)
       Max VN number:   0.11E-01 at (  31,  15,  12)
 
       Time Step       3   July  1, 2020  14:01:36
       Step Size:    0.158E+00 s, Total Time:       0.47 s
       Pressure Iterations:      5
       Maximum Velocity Error:  0.28E-17 on Mesh   2 at (  81  12   2)
       Maximum Pressure Error:  0.44E+03 on Mesh   3 at (  41   6   1)
       ---------------------------------------------------------------
       Mesh    1
       Max CFL number:  0.15E-01 at (  54,  16,  12)
       Max divergence:  0.12E-05 at (  54,  16,  14)
       Min divergence: -0.12E-05 at (  17,  18,  10)
       Max VN number:   0.11E-01 at (  17,  11,   8)
       Mesh    2
       Max CFL number:  0.15E-01 at (  57,  10,   4)
       Max divergence:  0.12E-05 at (  12,   3,  16)
       Min divergence: -0.13E-05 at (   4,   2,  16)
       Max VN number:   0.12E-01 at (  57,  12,   4)
       Radiation Loss to Boundaries:        -0.001 kW
       Mesh    3
       Max CFL number:  0.88E+00 at (  50,  10,   1)
       Max divergence:  0.58E+01 at (  46,  10,   1)
       Min divergence: -0.59E-05 at (  47,  16,   3)
       Max VN number:   0.48E+00 at (  48,  10,   1)
       Total Heat Release Rate:           2082.996 kW
       Radiation Loss to Boundaries:      -164.283 kW
       Mesh    4
       Max CFL number:  0.14E+00 at (  24,   4,   9)
       Max divergence:  0.12E-05 at (  72,  17,   7)
       Min divergence: -0.12E-05 at (  55,  18,  11)
       Max VN number:   0.52E-01 at (   9,   1,   1)
       Radiation Loss to Boundaries:        -0.001 kW
       Mesh    5
       Max CFL number:  0.14E+00 at (  21,   7,   8)
       Max divergence:  0.13E-05 at (  77,  10,  15)
       Min divergence: -0.13E-05 at (   3,   8,  11)
       Max VN number:   0.52E-01 at (  34,   1,  20)
       Radiation Loss to Boundaries:        -0.001 kW
       Mesh    6
       Max CFL number:  0.14E+00 at (  38,   4,  16)
       Max divergence:  0.13E-05 at (  55,   2,   3)
       Min divergence: -0.12E-05 at (  78,  15,  10)
       Max VN number:   0.52E-01 at (  11,  20,  20)
       Radiation Loss to Boundaries:        -0.001 kW
       Mesh    7
       Max CFL number:  0.14E+00 at (  57,   7,   3)
       Max divergence:  0.12E-05 at (  47,  10,  11)
       Min divergence: -0.13E-05 at (  79,  11,  10)
       Max VN number:   0.52E-01 at (  55,  20,   1)
       Radiation Loss to Boundaries:        -0.001 kW
       Mesh    8
       Max CFL number:  0.14E+00 at (  56,  15,  17)
       Max divergence:  0.11E-05 at (  55,  12,  15)
       Min divergence: -0.12E-05 at (  17,  19,  16)
       Max VN number:   0.52E-01 at (  37,   1,   1)
 
       Time Step       4   July  1, 2020  14:01:37
       Step Size:    0.639E-01 s, Total Time:       0.54 s
       Pressure Iterations:      3
       Maximum Velocity Error:  0.12E-17 on Mesh   2 at (  81  18  20)
       Maximum Pressure Error:  0.48E+03 on Mesh   3 at (  44  10   1)
       ---------------------------------------------------------------
       Mesh    1
       Max CFL number:  0.59E-02 at (  54,  16,  12)
       Max divergence:  0.12E-05 at (  54,  16,  14)
       Min divergence: -0.12E-05 at (  17,  18,  10)
       Max VN number:   0.44E-02 at (  62,   6,  15)
       Mesh    2
       Max CFL number:  0.61E-02 at (  57,  10,   4)
       Max divergence:  0.12E-05 at (  12,   3,  16)
       Min divergence: -0.13E-05 at (   4,   2,  16)
       Max VN number:   0.47E-02 at (  57,  12,   4)
       Mesh    3
       Max CFL number:  0.61E+00 at (  49,  10,   1)
       Max divergence:  0.44E+01 at (  50,  11,   1)
       Min divergence: -0.10E-05 at (  10,  19,   2)
       Max VN number:   0.22E+00 at (  50,  11,   1)
       Total Heat Release Rate:           3022.297 kW
       Radiation Loss to Boundaries:     -1207.929 kW
       Mesh    4
       Max CFL number:  0.10E+00 at (  24,   4,   9)
       Max divergence:  0.12E-05 at (  72,  17,   7)
       Min divergence: -0.12E-05 at (  55,  18,  11)
       Max VN number:   0.40E-01 at (  75,  20,   1)
       Mesh    5
       Max CFL number:  0.10E+00 at (  21,   7,   8)
       Max divergence:  0.13E-05 at (  77,  10,  15)
       Min divergence: -0.13E-05 at (   3,   8,  11)
       Max VN number:   0.40E-01 at (  34,   1,  20)
       Mesh    6
       Max CFL number:  0.10E+00 at (  38,   4,  16)
       Max divergence:  0.13E-05 at (  55,   6,  10)
       Min divergence: -0.12E-05 at (  78,  15,  10)
       Max VN number:   0.40E-01 at (  11,  20,  20)
       Mesh    7
       Max CFL number:  0.10E+00 at (  57,   7,   3)
       Max divergence:  0.12E-05 at (  47,  10,  11)
       Min divergence: -0.13E-05 at (  28,  12,  12)
       Max VN number:   0.40E-01 at (  55,  20,   1)
       Mesh    8
       Max CFL number:  0.10E+00 at (  51,   8,  12)
       Max divergence:  0.11E-05 at (  68,  17,   7)
       Min divergence: -0.12E-05 at (  17,  19,  16)
       Max VN number:   0.40E-01 at (  37,   1,   1)
 
       Time Step       5   July  1, 2020  14:01:38
       Step Size:    0.703E-01 s, Total Time:       0.61 s
       Pressure Iterations:      7
       Maximum Velocity Error:  0.79E-17 on Mesh   2 at (  81   1   7)
       Maximum Pressure Error:  0.32E+03 on Mesh   3 at (  41   6   1)
       ---------------------------------------------------------------
       Mesh    1
       Max CFL number:  0.64E-02 at (  54,  16,  12)
       Max divergence:  0.12E-05 at (  54,  16,  14)
       Min divergence: -0.12E-05 at (  17,  18,  10)
       Max VN number:   0.48E-02 at (  62,   6,  15)
       Mesh    2
       Max CFL number:  0.67E-02 at (  57,  10,   4)
       Max divergence:  0.12E-05 at (  12,   3,  16)
       Min divergence: -0.13E-05 at (   4,   2,  16)
       Max VN number:   0.51E-02 at (  57,  12,   4)
       Mesh    3
       Max CFL number:  0.58E+00 at (  50,   6,   1)
       Max divergence:  0.18E+01 at (  50,   5,   1)
       Min divergence: -0.36E+01 at (  44,  10,   1)
       Max VN number:   0.20E+00 at (  50,  15,   1)
       Total Heat Release Rate:           3209.830 kW
       Radiation Loss to Boundaries:     -3746.919 kW
       Mesh    4
       Max CFL number:  0.10E+00 at (  70,   7,   5)
       Max divergence:  0.13E-05 at (  72,  17,   7)
       Min divergence: -0.12E-05 at (  55,  18,  11)
       Max VN number:   0.40E-01 at (  75,  20,   1)
       Mesh    5
       Max CFL number:  0.10E+00 at (  21,   7,   8)
       Max divergence:  0.13E-05 at (  59,  15,  11)
       Min divergence: -0.13E-05 at (   3,   8,  11)
       Max VN number:   0.40E-01 at (  34,   1,  20)
       Mesh    6
       Max CFL number:  0.10E+00 at (  57,  17,  11)
       Max divergence:  0.13E-05 at (  55,   6,  10)
       Min divergence: -0.12E-05 at (  78,  15,  10)
       Max VN number:   0.40E-01 at (  11,  20,  20)
       Mesh    7
       Max CFL number:  0.10E+00 at (  57,   7,   3)
       Max divergence:  0.12E-05 at (  47,  10,  11)
       Min divergence: -0.13E-05 at (  28,  12,  12)
       Max VN number:   0.40E-01 at (  55,  20,   1)
       Mesh    8
       Max CFL number:  0.10E+00 at (  51,   8,  12)
       Max divergence:  0.11E-05 at (  68,  17,   7)
       Min divergence: -0.12E-05 at (  17,  19,  16)
       Max VN number:   0.40E-01 at (  37,   1,   1)
 
       Time Step       6   July  1, 2020  14:01:39
       Step Size:    0.773E-01 s, Total Time:       0.69 s
       Pressure Iterations:      5
       Maximum Velocity Error:  0.84E-17 on Mesh   2 at (  81  18  20)
       Maximum Pressure Error:  0.45E+03 on Mesh   3 at (  50  15   1)
       ---------------------------------------------------------------
       Mesh    1
       Max CFL number:  0.71E-02 at (  54,  16,  12)
       Max divergence:  0.12E-05 at (  54,  16,  14)
       Min divergence: -0.12E-05 at (  17,  18,  10)
       Max VN number:   0.53E-02 at (  62,   6,  15)
       Mesh    2
       Max CFL number:  0.73E-02 at (  57,  10,   4)
       Max divergence:  0.12E-05 at (  12,   3,  16)
       Min divergence: -0.13E-05 at (   4,   2,  16)
       Max VN number:   0.56E-02 at (  57,  12,   4)
       Mesh    3
       Max CFL number:  0.66E+00 at (  42,  10,   1)
       Max divergence:  0.52E+01 at (  42,  15,   1)
       Min divergence: -0.32E+00 at (  50,  10,   1)
       Max VN number:   0.14E+00 at (  40,  15,   1)
       Total Heat Release Rate:            978.467 kW
       Radiation Loss to Boundaries:      -341.231 kW
       Mesh    4
       Max CFL number:  0.36E-01 at (  50,   8,   3)
       Max divergence:  0.12E-05 at (  72,  17,   7)
       Min divergence: -0.12E-05 at (  55,  18,  11)
       Max VN number:   0.64E-02 at (  27,  20,  20)
       Mesh    5
       Max CFL number:  0.35E-01 at (  64,  19,  12)
       Max divergence:  0.13E-05 at (  77,  10,  15)
       Min divergence: -0.13E-05 at (   3,   8,  11)
       Max VN number:   0.63E-02 at (  32,  20,   1)
       Mesh    6
       Max CFL number:  0.36E-01 at (   6,  19,  13)
       Max divergence:  0.13E-05 at (  55,   6,  10)
       Min divergence: -0.12E-05 at (  78,  15,  10)
       Max VN number:   0.63E-02 at (  74,   1,  20)
       Mesh    7
       Max CFL number:  0.36E-01 at (  71,  13,  17)
       Max divergence:  0.12E-05 at (  47,  10,  11)
       Min divergence: -0.13E-05 at (  28,  12,  12)
       Max VN number:   0.62E-02 at (  59,   1,   1)
       Mesh    8
       Max CFL number:  0.36E-01 at (   5,   2,   2)
       Max divergence:  0.11E-05 at (  68,  17,   7)
       Min divergence: -0.12E-05 at (  17,  19,  16)
       Max VN number:   0.65E-02 at (  58,  20,  20)
 
       Time Step       7   July  1, 2020  14:01:40
       Step Size:    0.850E-01 s, Total Time:       0.77 s
       Pressure Iterations:      6
       Maximum Velocity Error:  0.14E-16 on Mesh   5 at (  81   9   4)
       Maximum Pressure Error:  0.37E+03 on Mesh   3 at (  42  15   1)
       ---------------------------------------------------------------
       Mesh    1
       Max CFL number:  0.77E-02 at (  54,  16,  12)
       Max divergence:  0.12E-05 at (  54,  16,  14)
       Min divergence: -0.12E-05 at (  17,  18,  10)
       Max VN number:   0.58E-02 at (  62,   6,  15)
       Mesh    2
       Max CFL number:  0.80E-02 at (  57,  10,   4)
       Max divergence:  0.12E-05 at (  12,   3,  16)
       Min divergence: -0.13E-05 at (   4,   2,  16)
       Max VN number:   0.62E-02 at (  57,  12,   4)
       Mesh    3
       Max CFL number:  0.79E+00 at (  41,   7,   1)
       Max divergence:  0.37E+01 at (  41,  15,   1)
       Min divergence: -0.32E+01 at (  42,   6,   1)
       Max VN number:   0.22E+00 at (  42,  15,   1)
       Total Heat Release Rate:            425.254 kW
       Radiation Loss to Boundaries:      -285.211 kW
       Mesh    4
       Max CFL number:  0.47E-01 at (  70,   7,   5)
       Max divergence:  0.13E-05 at (  72,  17,   7)
       Min divergence: -0.12E-05 at (  55,  18,  11)
       Max VN number:   0.12E-01 at (   9,   1,   1)
       Mesh    5
       Max CFL number:  0.48E-01 at (  21,   7,   8)
       Max divergence:  0.13E-05 at (  59,  15,  11)
       Min divergence: -0.13E-05 at (   3,   8,  11)
       Max VN number:   0.12E-01 at (  34,   1,  20)
       Mesh    6
       Max CFL number:  0.47E-01 at (  57,  17,  11)
       Max divergence:  0.13E-05 at (  55,   6,  10)
       Min divergence: -0.12E-05 at (  78,  15,  10)
       Max VN number:   0.12E-01 at (  11,  20,  20)
       Mesh    7
       Max CFL number:  0.48E-01 at (  57,   7,   3)
       Max divergence:  0.12E-05 at (  47,  10,  11)
       Min divergence: -0.13E-05 at (  28,  12,  12)
       Max VN number:   0.12E-01 at (  41,  20,   1)
       Mesh    8
       Max CFL number:  0.47E-01 at (  51,   8,  12)
       Max divergence:  0.11E-05 at (  68,  17,   7)
       Min divergence: -0.12E-05 at (  17,  19,  16)
       Max VN number:   0.12E-01 at (  37,   1,   1)
 
       Time Step       8   July  1, 2020  14:01:42
       Step Size:    0.752E-01 s, Total Time:       0.85 s
       Pressure Iterations:      5
       Maximum Velocity Error:  0.14E-16 on Mesh   5 at (  81   9  17)
       Maximum Pressure Error:  0.25E+03 on Mesh   3 at (  43   6   1)
       ---------------------------------------------------------------
       Mesh    1
       Max CFL number:  0.68E-02 at (  54,  16,  12)
       Max divergence:  0.12E-05 at (  54,  16,  14)
       Min divergence: -0.12E-05 at (  17,  18,  10)
       Max VN number:   0.51E-02 at (  62,   6,  15)
       Mesh    2
       Max CFL number:  0.71E-02 at (  57,  10,   4)
       Max divergence:  0.12E-05 at (  12,   3,  16)
       Min divergence: -0.13E-05 at (   4,   2,  16)
       Max VN number:   0.54E-02 at (  57,  12,   4)
       Mesh    3
       Max CFL number:  0.86E+00 at (  41,   6,   1)
       Max divergence:  0.77E+01 at (  42,   6,   1)
       Min divergence: -0.13E+01 at (  50,   6,   2)
       Max VN number:   0.14E+00 at (  40,   6,   1)
       Total Heat Release Rate:            793.747 kW
       Radiation Loss to Boundaries:      -227.527 kW
       Mesh    4
       Max CFL number:  0.15E-01 at (  70,   7,   5)
       Max divergence:  0.13E-05 at (  72,  17,   7)
       Min divergence: -0.12E-05 at (  55,  18,  11)
       Max VN number:   0.52E-02 at (  58,  17,   8)
       Mesh    5
       Max CFL number:  0.16E-01 at (  21,   7,   8)
       Max divergence:  0.13E-05 at (  59,  15,  11)
       Min divergence: -0.13E-05 at (   3,   8,  11)
       Max VN number:   0.54E-02 at (  17,   9,  12)
       Mesh    6
       Max CFL number:  0.15E-01 at (  57,  17,  11)
       Max divergence:  0.13E-05 at (  55,   6,  10)
       Min divergence: -0.12E-05 at (  78,  15,  10)
       Max VN number:   0.51E-02 at (  55,   6,  10)
       Mesh    7
       Max CFL number:  0.16E-01 at (  57,   7,   3)
       Max divergence:  0.12E-05 at (  47,  10,  11)
       Min divergence: -0.13E-05 at (  28,  12,  12)
       Max VN number:   0.52E-02 at (  42,  15,  14)
       Mesh    8
       Max CFL number:  0.15E-01 at (  51,   8,  12)
       Max divergence:  0.11E-05 at (  68,  17,   7)
       Min divergence: -0.12E-05 at (  17,  19,  16)
       Max VN number:   0.53E-02 at (  29,  17,  17)
 
       Time Step       9   July  1, 2020  14:01:42
       Step Size:    0.752E-01 s, Total Time:       0.92 s
       Pressure Iterations:      2
       Maximum Velocity Error:  0.65E-18 on Mesh   2 at (  81   2   2)
       Maximum Pressure Error:  0.41E+03 on Mesh   3 at (  42   6   1)
       ---------------------------------------------------------------
       Mesh    1
       Max CFL number:  0.68E-02 at (  54,  16,  12)
       Max divergence:  0.12E-05 at (  54,  16,  14)
       Min divergence: -0.12E-05 at (  17,  18,  10)
       Max VN number:   0.51E-02 at (  62,   6,  15)
       Mesh    2
       Max CFL number:  0.71E-02 at (  57,  10,   4)
       Max divergence:  0.12E-05 at (  12,   3,  16)
       Min divergence: -0.13E-05 at (   4,   2,  16)
       Max VN number:   0.54E-02 at (  57,  12,   4)
       Mesh    3
       Max CFL number:  0.93E+00 at (  41,  14,   1)
       Max divergence:  0.13E+02 at (  50,  15,   1)
       Min divergence: -0.21E+01 at (  50,   6,   2)
       Max VN number:   0.32E+00 at (  42,   6,   1)
       Total Heat Release Rate:            909.960 kW
       Radiation Loss to Boundaries:      -364.422 kW
       Mesh    4
       Max CFL number:  0.40E-01 at (  70,   7,   5)
       Max divergence:  0.13E-05 at (  72,  17,   7)
       Min divergence: -0.12E-05 at (  55,  18,  11)
       Max VN number:   0.94E-02 at (   9,   1,   1)
       Mesh    5
       Max CFL number:  0.40E-01 at (  21,   7,   8)
       Max divergence:  0.13E-05 at (  59,  15,  11)
       Min divergence: -0.13E-05 at (   3,   8,  11)
       Max VN number:   0.91E-02 at (  34,   1,  20)
       Mesh    6
       Max CFL number:  0.40E-01 at (  57,  17,  11)
       Max divergence:  0.13E-05 at (  55,   6,  10)
       Min divergence: -0.12E-05 at (  78,  15,  10)
       Max VN number:   0.94E-02 at (  11,  20,  20)
       Mesh    7
       Max CFL number:  0.40E-01 at (  57,   7,   3)
       Max divergence:  0.12E-05 at (  47,  10,  11)
       Min divergence: -0.13E-05 at (  28,  12,  12)
       Max VN number:   0.91E-02 at (  41,  20,   1)
       Mesh    8
       Max CFL number:  0.40E-01 at (  51,   8,  12)
       Max divergence:  0.11E-05 at (  24,   9,  15)
       Min divergence: -0.12E-05 at (  17,  19,  16)
       Max VN number:   0.93E-02 at (  37,   1,   1)
 
       Time Step      10   July  1, 2020  14:01:43
       Step Size:    0.463E-01 s, Total Time:       0.97 s
       Pressure Iterations:      8
       Maximum Velocity Error:  0.15E-16 on Mesh   2 at (  81   1   9)
       Maximum Pressure Error:  0.23E+03 on Mesh   3 at (  50  15   1)
       ---------------------------------------------------------------
       Mesh    1
       Max CFL number:  0.42E-02 at (  54,  16,  12)
       Max divergence:  0.12E-05 at (  54,  16,  14)
       Min divergence: -0.12E-05 at (  17,  18,  10)
       Max VN number:   0.32E-02 at (  62,   6,  15)
       Mesh    2
       Max CFL number:  0.44E-02 at (  57,  10,   4)
       Max divergence:  0.12E-05 at (  12,   3,  16)
       Min divergence: -0.13E-05 at (   4,   2,  16)
       Max VN number:   0.33E-02 at (  57,  12,   4)
       Mesh    3
       Max CFL number:  0.75E+00 at (  50,  15,   1)
       Max divergence:  0.86E+01 at (  50,   6,   1)
       Min divergence: -0.91E+00 at (  44,  15,   2)
       Max VN number:   0.36E+00 at (  50,  15,   1)
       Total Heat Release Rate:           1232.138 kW
       Radiation Loss to Boundaries:      -292.195 kW
       Mesh    4
       Max CFL number:  0.24E-01 at (  70,   7,   5)
       Max divergence:  0.13E-05 at (  72,  17,   7)
       Min divergence: -0.12E-05 at (  55,  18,  11)
       Max VN number:   0.58E-02 at (   9,   1,   1)
       Mesh    5
       Max CFL number:  0.25E-01 at (  21,   7,   8)
       Max divergence:  0.13E-05 at (  59,  15,  11)
       Min divergence: -0.13E-05 at (   3,   8,  11)
       Max VN number:   0.56E-02 at (  34,   1,  20)
       Mesh    6
       Max CFL number:  0.24E-01 at (  57,  17,  11)
       Max divergence:  0.13E-05 at (  55,   6,  10)
       Min divergence: -0.12E-05 at (  78,  15,  10)
       Max VN number:   0.58E-02 at (  11,  20,  20)
       Mesh    7
       Max CFL number:  0.25E-01 at (  57,   7,   3)
       Max divergence:  0.12E-05 at (  47,  10,  11)
       Min divergence: -0.13E-05 at (  28,  12,  12)
       Max VN number:   0.56E-02 at (  41,  20,   1)
       Mesh    8
       Max CFL number:  0.25E-01 at (  51,   8,  12)
       Max divergence:  0.11E-05 at (  24,   9,  15)
       Min divergence: -0.12E-05 at (  17,  19,  16)
       Max VN number:   0.57E-02 at (  37,   1,   1)
 
       Time Step      20   July  1, 2020  14:01:57
       Step Size:    0.321E-01 s, Total Time:       1.40 s
       Pressure Iterations:      8
       Maximum Velocity Error:  0.20E-16 on Mesh   2 at (  81   1   9)
       Maximum Pressure Error:  0.21E+03 on Mesh   3 at (  47  14   1)
       ---------------------------------------------------------------
       Mesh    1
       Max CFL number:  0.29E-02 at (   4,   8,  11)
       Max divergence:  0.12E-05 at (  54,  16,  14)
       Min divergence: -0.12E-05 at (  17,  18,  10)
       Max VN number:   0.22E-02 at (  62,   6,  15)
       Mesh    2
       Max CFL number:  0.30E-02 at (  57,  10,   4)
       Max divergence:  0.50E-04 at (  80,  18,  20)
       Min divergence: -0.13E-05 at (   4,   2,  16)
       Max VN number:   0.23E-02 at (  70,  13,  14)
       Radiation Loss to Boundaries:         0.026 kW
       Mesh    3
       Max CFL number:  0.90E+00 at (  47,   7,   1)
       Max divergence:  0.13E+02 at (  46,  14,   1)
       Min divergence: -0.34E+01 at (  43,  12,   1)
       Max VN number:   0.46E+00 at (  48,  14,   1)
       Total Heat Release Rate:           3241.903 kW
       Radiation Loss to Boundaries:     -1156.450 kW
       Mesh    4
       Max CFL number:  0.60E-01 at (  79,  18,  17)
       Max divergence:  0.14E-03 at (   1,  20,   7)
       Min divergence: -0.11E-05 at (  58,  17,   7)
       Max VN number:   0.23E-01 at (  26,  20,  20)
       Radiation Loss to Boundaries:         0.057 kW
       Mesh    5
       Max CFL number:  0.60E-01 at (  53,   7,   9)
       Max divergence:  0.13E-05 at (  59,  15,  11)
       Min divergence: -0.13E-05 at (   3,   8,  11)
       Max VN number:   0.23E-01 at (  13,  20,   1)
       Mesh    6
       Max CFL number:  0.60E-01 at (  59,  19,  15)
       Max divergence:  0.12E-05 at (  21,   4,  14)
       Min divergence: -0.13E-05 at (  27,   2,   9)
       Max VN number:   0.23E-01 at (  11,  20,  20)
       Mesh    7
       Max CFL number:  0.61E-01 at (  57,   7,   3)
       Max divergence:  0.11E-05 at (   7,   3,  16)
       Min divergence: -0.12E-05 at (  28,  12,  12)
       Max VN number:   0.23E-01 at (  53,   1,   1)
       Mesh    8
       Max CFL number:  0.60E-01 at (  54,   2,  11)
       Max divergence:  0.13E-05 at (  17,  18,  18)
       Min divergence: -0.12E-05 at (  14,   2,  17)
       Max VN number:   0.23E-01 at (  37,   1,   1)
 
       Time Step      30   July  1, 2020  14:02:09
       Step Size:    0.281E-01 s, Total Time:       1.72 s
       Pressure Iterations:      7
       Maximum Velocity Error:  0.34E-16 on Mesh   2 at (  81   1  10)
       Maximum Pressure Error:  0.44E+03 on Mesh   3 at (  48  13   2)
       ---------------------------------------------------------------
       Mesh    1
       Max CFL number:  0.25E-02 at (   4,   8,  11)
       Max divergence:  0.12E-05 at (  54,  16,  14)
       Min divergence: -0.12E-05 at (  17,  18,  10)
       Max VN number:   0.19E-02 at (  62,   6,  15)
       Mesh    2
       Max CFL number:  0.26E-02 at (  57,   9,   4)
       Max divergence:  0.13E-03 at (  80,   1,   9)
       Min divergence: -0.10E-05 at (   9,   4,   7)
       Max VN number:   0.20E-02 at (  70,  13,  14)
       Radiation Loss to Boundaries:         0.895 kW
       Mesh    3
       Max CFL number:  0.88E+00 at (  51,  13,   5)
       Max divergence:  0.11E+02 at (  49,   6,   1)
       Min divergence: -0.25E+01 at (  49,   7,   1)
       Max VN number:   0.30E+00 at (  48,  13,   2)
       Total Heat Release Rate:           5337.132 kW
       Radiation Loss to Boundaries:     -1472.274 kW
       Mesh    4
       Max CFL number:  0.85E-01 at (  74,  12,  14)
       Max divergence:  0.21E-03 at (   1,  20,   8)
       Min divergence: -0.11E-05 at (  74,  15,   7)
       Max VN number:   0.32E-01 at (  26,  20,  20)
       Radiation Loss to Boundaries:         1.445 kW
       Mesh    5
       Max CFL number:  0.85E-01 at (   9,  16,  19)
       Max divergence:  0.13E-05 at (  18,  15,  16)
       Min divergence: -0.12E-05 at (   7,   4,  16)
       Max VN number:   0.32E-01 at (   8,  20,  20)
       Mesh    6
       Max CFL number:  0.86E-01 at (  13,   6,   7)
       Max divergence:  0.13E-05 at (  40,  13,  17)
       Min divergence: -0.14E-05 at (  27,   2,   9)
       Max VN number:   0.32E-01 at (  12,  20,  20)
       Mesh    7
       Max CFL number:  0.85E-01 at (  57,   7,   3)
       Max divergence:  0.14E-05 at (  14,  15,   6)
       Min divergence: -0.12E-05 at (  78,   4,  10)
       Max VN number:   0.32E-01 at (  22,   1,  20)
       Mesh    8
       Max CFL number:  0.85E-01 at (  54,   2,  11)
       Max divergence:  0.13E-05 at (  17,  18,  18)
       Min divergence: -0.11E-05 at (  56,   5,   6)
       Max VN number:   0.32E-01 at (  57,  20,   1)
 
       Time Step      40   July  1, 2020  14:02:22
       Step Size:    0.239E-01 s, Total Time:       1.97 s
       Pressure Iterations:      8
       Maximum Velocity Error:  0.22E-15 on Mesh   3 at (  81  15   7)
       Maximum Pressure Error:  0.30E+03 on Mesh   3 at (  50  14   1)
       ---------------------------------------------------------------
       Mesh    1
       Max CFL number:  0.22E-02 at (   4,   8,  11)
       Max divergence:  0.17E-05 at (  78,  20,  20)
       Min divergence: -0.12E-05 at (  17,  18,  10)
       Max VN number:   0.16E-02 at (  62,   6,  15)
       Mesh    2
       Max CFL number:  0.22E-02 at (  77,  13,  15)
       Max divergence:  0.29E-03 at (  80,  18,  11)
       Min divergence: -0.10E-05 at (   9,   4,   7)
       Max VN number:   0.17E-02 at (  70,  13,  14)
       Radiation Loss to Boundaries:         2.289 kW
       Mesh    3
       Max CFL number:  0.87E+00 at (  54,  13,   7)
       Max divergence:  0.14E+02 at (  50,  13,   1)
       Min divergence: -0.39E+01 at (  46,  10,   3)
       Max VN number:   0.36E+00 at (  50,   7,   1)
       Total Heat Release Rate:           7334.640 kW
       Radiation Loss to Boundaries:     -1798.357 kW
       Mesh    4
       Max CFL number:  0.11E+00 at (   6,   5,  13)
       Max divergence:  0.50E-03 at (   1,  10,   9)
       Min divergence: -0.92E-06 at (  74,  15,   8)
       Max VN number:   0.40E-01 at (   1,  20,  20)
       Radiation Loss to Boundaries:         3.985 kW
       Mesh    5
       Max CFL number:  0.11E+00 at (  68,   8,   9)
       Max divergence:  0.41E-05 at (   2,   1,  20)
       Min divergence: -0.13E-05 at (  20,   3,  13)
       Max VN number:   0.40E-01 at (  14,  20,   1)
       Radiation Loss to Boundaries:         0.003 kW
       Mesh    6
       Max CFL number:  0.11E+00 at (  13,   6,   7)
       Max divergence:  0.13E-05 at (   7,  14,   7)
       Min divergence: -0.13E-05 at (  47,  11,  13)
       Max VN number:   0.40E-01 at (  12,  20,  20)
       Mesh    7
       Max CFL number:  0.11E+00 at (  15,   5,  16)
       Max divergence:  0.13E-05 at (  14,  15,   6)
       Min divergence: -0.13E-05 at (  42,  14,  18)
       Max VN number:   0.40E-01 at (  31,  20,  20)
       Mesh    8
       Max CFL number:  0.11E+00 at (   5,   3,  11)
       Max divergence:  0.12E-05 at (  20,   8,  18)
       Min divergence: -0.12E-05 at (  15,  19,  16)
       Max VN number:   0.40E-01 at (  25,  20,   1)
 
       Time Step      50   July  1, 2020  14:02:36
       Step Size:    0.197E-01 s, Total Time:       2.18 s
       Pressure Iterations:      8
       Maximum Velocity Error:  0.16E-16 on Mesh   2 at (  81   3  11)
       Maximum Pressure Error:  0.21E+03 on Mesh   3 at (  42  14   1)
       ---------------------------------------------------------------
       Mesh    1
       Max CFL number:  0.18E-02 at (   4,   8,  11)
       Max divergence:  0.17E-05 at (  78,  20,  20)
       Min divergence: -0.13E-05 at (  17,  18,  10)
       Max VN number:   0.13E-02 at (  62,   6,  15)
       Radiation Loss to Boundaries:         0.001 kW
       Mesh    2
       Max CFL number:  0.18E-02 at (  77,  13,  15)
       Max divergence:  0.29E-03 at (  80,  19,  11)
       Min divergence: -0.98E-06 at (   9,   4,   7)
       Max VN number:   0.14E-02 at (  70,  13,  14)
       Radiation Loss to Boundaries:         2.349 kW
       Mesh    3
       Max CFL number:  0.97E+00 at (  56,   9,   7)
       Max divergence:  0.13E+02 at (  49,   7,   4)
       Min divergence: -0.43E+01 at (  47,  10,   4)
       Max VN number:   0.25E+00 at (  53,   8,   4)
       Total Heat Release Rate:           8887.829 kW
       Radiation Loss to Boundaries:     -2204.205 kW
       Mesh    4
       Max CFL number:  0.11E+00 at (   1,  16,  19)
       Max divergence:  0.56E-03 at (   1,  19,  10)
       Min divergence: -0.96E-06 at (  80,   8,   7)
       Max VN number:   0.42E-01 at (   1,   1,  20)
       Radiation Loss to Boundaries:         4.459 kW
       Mesh    5
       Max CFL number:  0.11E+00 at (  36,   5,   9)
       Max divergence:  0.38E-05 at (   2,   1,  20)
       Min divergence: -0.13E-05 at (  17,  15,  16)
       Max VN number:   0.42E-01 at (  32,   1,  20)
       Radiation Loss to Boundaries:         0.003 kW
       Mesh    6
       Max CFL number:  0.11E+00 at (  72,  14,  10)
       Max divergence:  0.12E-05 at (  53,   2,   3)
       Min divergence: -0.14E-05 at (  11,   7,  12)
       Max VN number:   0.42E-01 at (  15,  20,  20)
       Mesh    7
       Max CFL number:  0.11E+00 at (  42,   8,  19)
       Max divergence:  0.14E-05 at (  44,  10,   8)
       Min divergence: -0.13E-05 at (  62,   5,  17)
       Max VN number:   0.42E-01 at (  23,   1,  20)
       Mesh    8
       Max CFL number:  0.11E+00 at (  25,  10,   9)
       Max divergence:  0.13E-05 at (  54,  19,   9)
       Min divergence: -0.14E-05 at (   6,   4,   6)
       Max VN number:   0.42E-01 at (  58,  20,   1)
 
       Time Step      60   July  1, 2020  14:02:49
       Step Size:    0.163E-01 s, Total Time:       2.37 s
       Pressure Iterations:      7
       Maximum Velocity Error:  0.50E-17 on Mesh   2 at (  81   3  11)
       Maximum Pressure Error:  0.29E+03 on Mesh   3 at (  42  15   1)
       ---------------------------------------------------------------
       Mesh    1
       Max CFL number:  0.15E-02 at (   4,   8,  11)
       Max divergence:  0.29E-05 at (  80,   1,  20)
       Min divergence: -0.13E-05 at (  17,  18,  10)
       Max VN number:   0.11E-02 at (  62,   6,  15)
       Radiation Loss to Boundaries:         0.002 kW
       Mesh    2
       Max CFL number:  0.15E-02 at (  77,  13,  15)
       Max divergence:  0.40E-03 at (  80,   3,  13)
       Min divergence: -0.94E-06 at (   9,   4,   7)
       Max VN number:   0.11E-02 at (  70,  13,  14)
       Radiation Loss to Boundaries:         3.272 kW
       Mesh    3
       Max CFL number:  0.89E+00 at (  52,  10,   5)
       Max divergence:  0.17E+02 at (  50,  14,   1)
       Min divergence: -0.36E+01 at (  48,   9,   6)
       Max VN number:   0.21E+00 at (  50,   9,   4)
       Total Heat Release Rate:          10215.352 kW
       Radiation Loss to Boundaries:     -2845.014 kW
       Mesh    4
       Max CFL number:  0.10E+00 at (   1,   7,  17)
       Max divergence:  0.10E-02 at (   1,  10,  11)
       Min divergence: -0.85E-06 at (  80,  16,   8)
       Max VN number:   0.38E-01 at (   1,   1,  20)
       Radiation Loss to Boundaries:        10.217 kW
       Mesh    5
       Max CFL number:  0.10E+00 at (   9,  12,   9)
       Max divergence:  0.79E-05 at (   1,   1,  20)
       Min divergence: -0.12E-05 at (  52,   3,   7)
       Max VN number:   0.37E-01 at (  37,   1,  20)
       Radiation Loss to Boundaries:         0.007 kW
       Mesh    6
       Max CFL number:  0.10E+00 at (  10,   9,  12)
       Max divergence:  0.12E-05 at (  71,   7,   6)
       Min divergence: -0.12E-05 at (  34,   5,   3)
       Max VN number:   0.37E-01 at (  15,  20,  20)
       Mesh    7
       Max CFL number:  0.10E+00 at (  36,  16,  18)
       Max divergence:  0.14E-05 at (   9,   4,   7)
       Min divergence: -0.12E-05 at (  71,   8,   5)
       Max VN number:   0.37E-01 at (  39,  20,  20)
       Mesh    8
       Max CFL number:  0.10E+00 at (  25,   9,   2)
       Max divergence:  0.13E-05 at (  19,   6,  17)
       Min divergence: -0.12E-05 at (  72,  14,   9)
       Max VN number:   0.37E-01 at (  65,  20,   1)
 
       Time Step      70   July  1, 2020  14:03:03
       Step Size:    0.120E-01 s, Total Time:       2.52 s
       Pressure Iterations:      7
       Maximum Velocity Error:  0.11E-16 on Mesh   2 at (  81   3  12)
       Maximum Pressure Error:  0.26E+03 on Mesh   3 at (  42   6   1)
       ---------------------------------------------------------------
       Mesh    1
       Max CFL number:  0.11E-02 at (   4,   8,  11)
       Max divergence:  0.28E-05 at (  80,   1,  20)
       Min divergence: -0.13E-05 at (  17,  18,  10)
       Max VN number:   0.80E-03 at (  62,   6,  15)
       Radiation Loss to Boundaries:         0.002 kW
       Mesh    2
       Max CFL number:  0.11E-02 at (  77,  13,  15)
       Max divergence:  0.39E-03 at (  80,   3,  15)
       Min divergence: -0.91E-06 at (   9,   4,   7)
       Max VN number:   0.84E-03 at (  70,  13,  14)
       Radiation Loss to Boundaries:         3.432 kW
       Mesh    3
       Max CFL number:  0.86E+00 at (  51,   9,   8)
       Max divergence:  0.12E+02 at (  41,  14,   1)
       Min divergence: -0.32E+01 at (  52,   9,   9)
       Max VN number:   0.18E+00 at (  56,  10,  11)
       Total Heat Release Rate:          10514.065 kW
       Radiation Loss to Boundaries:     -2538.713 kW
       Mesh    4
       Max CFL number:  0.84E-01 at (   1,  19,  19)
       Max divergence:  0.17E-02 at (   1,  10,   3)
       Min divergence: -0.49E-06 at (  80,   4,   6)
       Max VN number:   0.31E-01 at (   1,   1,  20)
       Radiation Loss to Boundaries:        18.543 kW
       Mesh    5
       Max CFL number:  0.81E-01 at (  65,  18,  17)
       Max divergence:  0.12E-04 at (   1,   1,  20)
       Min divergence: -0.12E-05 at (  22,   3,  13)
       Max VN number:   0.30E-01 at (  74,   1,  20)
       Radiation Loss to Boundaries:         0.011 kW
       Mesh    6
       Max CFL number:  0.81E-01 at (  80,   4,  12)
       Max divergence:  0.13E-05 at (   5,  14,   7)
       Min divergence: -0.14E-05 at (  14,   7,   7)
       Max VN number:   0.30E-01 at (  16,  20,  20)
       Mesh    7
       Max CFL number:  0.81E-01 at (   1,   4,  12)
       Max divergence:  0.13E-05 at (   9,  19,  10)
       Min divergence: -0.11E-05 at (  52,   6,   5)
       Max VN number:   0.30E-01 at (  40,  20,  20)
       Mesh    8
       Max CFL number:  0.81E-01 at (  44,   9,   3)
       Max divergence:  0.13E-05 at (  53,   5,   6)
       Min divergence: -0.14E-05 at (  69,   6,  13)
       Max VN number:   0.30E-01 at (  52,   1,   1)
 
       Time Step      80   July  1, 2020  14:03:18
       Step Size:    0.132E-01 s, Total Time:       2.64 s
       Pressure Iterations:      8
       Maximum Velocity Error:  0.23E-16 on Mesh   2 at (  81   3  11)
       Maximum Pressure Error:  0.43E+03 on Mesh   3 at (  45  10   1)
       ---------------------------------------------------------------
       Mesh    1
       Max CFL number:  0.12E-02 at (   4,   8,  11)
       Max divergence:  0.28E-05 at (  80,   1,  20)
       Min divergence: -0.13E-05 at (  17,  18,  10)
       Max VN number:   0.88E-03 at (  62,   6,  15)
       Radiation Loss to Boundaries:         0.002 kW
       Mesh    2
       Max CFL number:  0.13E-02 at (  77,  13,  15)
       Max divergence:  0.39E-03 at (  80,   3,  15)
       Min divergence: -0.92E-06 at (   9,   4,   7)
       Max VN number:   0.92E-03 at (  70,  13,  14)
       Radiation Loss to Boundaries:         3.460 kW
       Mesh    3
       Max CFL number:  0.84E+00 at (  50,  11,   9)
       Max divergence:  0.12E+02 at (  41,   7,   1)
       Min divergence: -0.33E+01 at (  48,  12,   4)
       Max VN number:   0.23E+00 at (  58,  10,  13)
       Total Heat Release Rate:           8295.416 kW
       Radiation Loss to Boundaries:     -1863.462 kW
       Mesh    4
       Max CFL number:  0.84E-01 at (   1,  17,  19)
       Max divergence:  0.18E-02 at (   1,  11,  12)
       Min divergence: -0.37E-06 at (  78,   8,   7)
       Max VN number:   0.31E-01 at (   1,  20,  20)
       Radiation Loss to Boundaries:        20.581 kW
       Mesh    5
       Max CFL number:  0.79E-01 at (  51,   3,   8)
       Max divergence:  0.12E-04 at (   1,   1,  20)
       Min divergence: -0.13E-05 at (  22,   3,  13)
       Max VN number:   0.29E-01 at (  34,   1,  20)
       Radiation Loss to Boundaries:         0.011 kW
       Mesh    6
       Max CFL number:  0.79E-01 at (  61,  12,  18)
       Max divergence:  0.12E-05 at (  73,  15,  10)
       Min divergence: -0.14E-05 at (  14,   7,   7)
       Max VN number:   0.29E-01 at (  16,  20,  20)
       Mesh    7
       Max CFL number:  0.79E-01 at (  25,   3,  17)
       Max divergence:  0.12E-05 at (  10,  10,  11)
       Min divergence: -0.12E-05 at (   8,   4,   7)
       Max VN number:   0.29E-01 at (  40,  20,  20)
       Mesh    8
       Max CFL number:  0.79E-01 at (  33,  15,  19)
       Max divergence:  0.12E-05 at (  17,   6,  17)
       Min divergence: -0.12E-05 at (  69,   6,  13)
       Max VN number:   0.29E-01 at (  52,   1,   1)
 
       Time Step      90   July  1, 2020  14:03:31
       Step Size:    0.132E-01 s, Total Time:       2.78 s
       Pressure Iterations:      7
       Maximum Velocity Error:  0.22E-15 on Mesh   6 at (  81  20  17)
       Maximum Pressure Error:  0.25E+03 on Mesh   3 at (  43  12   1)
       ---------------------------------------------------------------
       Mesh    1
       Max CFL number:  0.12E-02 at (   4,   8,  11)
       Max divergence:  0.23E-05 at (  80,   1,  20)
       Min divergence: -0.13E-05 at (  17,  18,  10)
       Max VN number:   0.88E-03 at (  62,   6,  15)
       Radiation Loss to Boundaries:         0.002 kW
       Mesh    2
       Max CFL number:  0.13E-02 at (  77,  13,  15)
       Max divergence:  0.45E-03 at (  80,   2,  19)
       Min divergence: -0.90E-06 at (   9,   4,   7)
       Max VN number:   0.91E-03 at (  70,  13,  14)
       Radiation Loss to Boundaries:         3.662 kW
       Mesh    3
       Max CFL number:  0.80E+00 at (  51,   8,   8)
       Max divergence:  0.13E+02 at (  52,   8,   3)
       Min divergence: -0.44E+01 at (  48,   7,   1)
       Max VN number:   0.23E+00 at (  61,  10,  14)
       Total Heat Release Rate:           7126.544 kW
       Radiation Loss to Boundaries:     -1440.210 kW
       Mesh    4
       Max CFL number:  0.78E-01 at (   1,  10,  19)
       Max divergence:  0.24E-02 at (   1,  10,   5)
       Min divergence: -0.24E-06 at (  77,  15,  11)
       Max VN number:   0.29E-01 at (   1,  20,  20)
       Radiation Loss to Boundaries:        28.115 kW
       Mesh    5
       Max CFL number:  0.69E-01 at (  29,  17,  16)
       Max divergence:  0.17E-04 at (   1,  20,  20)
       Min divergence: -0.12E-05 at (  52,  11,  18)
       Max VN number:   0.25E-01 at (   1,  20,   1)
       Radiation Loss to Boundaries:         0.017 kW
       Mesh    6
       Max CFL number:  0.69E-01 at (  79,   3,   6)
       Max divergence:  0.12E-05 at (  70,  11,   4)
       Min divergence: -0.14E-05 at (   4,  14,   7)
       Max VN number:   0.25E-01 at (  57,  20,  20)
       Mesh    7
       Max CFL number:  0.70E-01 at (  25,   3,  17)
       Max divergence:  0.12E-05 at (  63,  14,   7)
       Min divergence: -0.13E-05 at (   8,   4,   7)
       Max VN number:   0.25E-01 at (  40,  20,  20)
       Mesh    8
       Max CFL number:  0.69E-01 at (  61,   6,  16)
       Max divergence:  0.15E-05 at (  51,   9,   8)
       Min divergence: -0.15E-05 at (  52,   5,   6)
       Max VN number:   0.25E-01 at (  29,  20,   1)
 
       Time Step     100   July  1, 2020  14:03:44
       Step Size:    0.132E-01 s, Total Time:       2.91 s
       Pressure Iterations:      8
       Maximum Velocity Error:  0.22E-15 on Mesh   4 at (  81  14  13)
       Maximum Pressure Error:  0.25E+03 on Mesh   3 at (  47  14   1)
       ---------------------------------------------------------------
       Mesh    1
       Max CFL number:  0.12E-02 at (   4,   8,  11)
       Max divergence:  0.20E-05 at (  78,  20,  20)
       Min divergence: -0.13E-05 at (  17,  18,  10)
       Max VN number:   0.87E-03 at (  62,   6,  15)
       Radiation Loss to Boundaries:         0.002 kW
       Mesh    2
       Max CFL number:  0.13E-02 at (  77,  13,  15)
       Max divergence:  0.32E-03 at (  80,   2,  20)
       Min divergence: -0.88E-06 at (   9,   4,   7)
       Max VN number:   0.91E-03 at (  70,  13,  14)
       Radiation Loss to Boundaries:         3.298 kW
       Mesh    3
       Max CFL number:  0.83E+00 at (  52,  13,   7)
       Max divergence:  0.15E+02 at (  52,   9,   2)
       Min divergence: -0.42E+01 at (  54,  11,   4)
       Max VN number:   0.21E+00 at (  64,  10,  15)
       Total Heat Release Rate:           6979.525 kW
       Radiation Loss to Boundaries:     -1291.411 kW
       Mesh    4
       Max CFL number:  0.80E-01 at (   1,  12,  19)
       Max divergence:  0.23E-02 at (   1,  12,   7)
       Min divergence:  0.11E-06 at (  80,  10,  14)
       Max VN number:   0.29E-01 at (   1,  20,  20)
       Radiation Loss to Boundaries:        28.473 kW
       Mesh    5
       Max CFL number:  0.68E-01 at (  29,  17,  16)
       Max divergence:  0.14E-04 at (   1,  20,  20)
       Min divergence: -0.12E-05 at (  49,  15,  17)
       Max VN number:   0.25E-01 at (  35,   1,  20)
       Radiation Loss to Boundaries:         0.022 kW
       Mesh    6
       Max CFL number:  0.68E-01 at (  65,   9,   7)
       Max divergence:  0.13E-05 at (  25,  15,   3)
       Min divergence: -0.13E-05 at (  29,  18,  17)
       Max VN number:   0.25E-01 at (  17,  20,  20)
       Mesh    7
       Max CFL number:  0.68E-01 at (   1,   4,  12)
       Max divergence:  0.12E-05 at (  10,  15,   6)
       Min divergence: -0.12E-05 at (  38,  14,  18)
       Max VN number:   0.25E-01 at (  30,  20,  20)
       Mesh    8
       Max CFL number:  0.68E-01 at (  12,  16,  18)
       Max divergence:  0.15E-05 at (  51,   9,   8)
       Min divergence: -0.14E-05 at (  52,   5,   6)
       Max VN number:   0.25E-01 at (  48,  20,  20)
 
       Time Step     200   July  1, 2020  14:06:00
       Step Size:    0.113E-01 s, Total Time:       4.19 s
       Pressure Iterations:      9
       Maximum Velocity Error:  0.89E-15 on Mesh   3 at (  81  11  19)
       Maximum Pressure Error:  0.23E+03 on Mesh   3 at (  47   6   1)
       ---------------------------------------------------------------
       Mesh    1
       Max CFL number:  0.10E-02 at (   4,   8,  11)
       Max divergence:  0.20E-05 at (  78,  20,  20)
       Min divergence: -0.12E-05 at (  17,  18,  10)
       Max VN number:   0.73E-03 at (  62,   6,  15)
       Radiation Loss to Boundaries:         0.002 kW
       Mesh    2
       Max CFL number:  0.14E-02 at (  79,   8,  18)
       Max divergence:  0.38E-03 at (  80,  19,  11)
       Min divergence: -0.84E-06 at (   2,   5,  10)
       Max VN number:   0.75E-03 at (  70,  13,  14)
       Radiation Loss to Boundaries:         4.133 kW
       Mesh    3
       Max CFL number:  0.86E+00 at (  62,  11,  15)
       Max divergence:  0.17E+02 at (  55,  12,   1)
       Min divergence: -0.49E+01 at (  50,   7,   1)
       Max VN number:   0.29E+00 at (  61,   9,  20)
       Total Heat Release Rate:           9816.115 kW
       Radiation Loss to Boundaries:     -2479.448 kW
       Mesh    4
       Max CFL number:  0.54E+00 at (   1,  10,  19)
       Max divergence:  0.94E+00 at (   7,  10,  20)
       Min divergence: -0.57E+00 at (   2,   5,  20)
       Max VN number:   0.16E+00 at (   1,   1,  20)
       Total Heat Release Rate:              0.236 kW
       Radiation Loss to Boundaries:       -17.479 kW
       Mesh    5
       Max CFL number:  0.70E-01 at (  32,   7,   8)
       Max divergence:  0.12E-04 at (   1,   2,   2)
       Min divergence: -0.12E-05 at (  38,  17,  11)
       Max VN number:   0.25E-01 at (  77,  20,  20)
       Radiation Loss to Boundaries:         0.036 kW
       Mesh    6
       Max CFL number:  0.70E-01 at (  52,   4,  16)
       Max divergence:  0.15E-05 at (   7,   7,   7)
       Min divergence: -0.13E-05 at (  36,  17,   4)
       Max VN number:   0.25E-01 at (  26,  20,  20)
       Mesh    7
       Max CFL number:  0.70E-01 at (  76,  18,  18)
       Max divergence:  0.13E-05 at (  59,   5,  17)
       Min divergence: -0.11E-05 at (  13,   7,  14)
       Max VN number:   0.25E-01 at (  48,  20,  20)
       Mesh    8
       Max CFL number:  0.70E-01 at (  39,   7,  14)
       Max divergence:  0.13E-05 at (  32,   9,  13)
       Min divergence: -0.12E-05 at (  48,   6,  10)
       Max VN number:   0.25E-01 at (  53,   1,   1)
 
       Time Step     300   July  1, 2020  14:08:14
       Step Size:    0.129E-01 s, Total Time:       5.41 s
       Pressure Iterations:      8
       Maximum Velocity Error:  0.89E-15 on Mesh   3 at (  81   2  20)
       Maximum Pressure Error:  0.42E+03 on Mesh   3 at (  56  11   1)
       ---------------------------------------------------------------
       Mesh    1
       Max CFL number:  0.12E-02 at (   4,   8,  11)
       Max divergence:  0.21E-05 at (  78,  20,  20)
       Min divergence: -0.12E-05 at (  17,  18,  10)
       Max VN number:   0.81E-03 at (  62,   6,  15)
       Radiation Loss to Boundaries:         0.003 kW
       Mesh    2
       Max CFL number:  0.57E-02 at (  80,  19,  20)
       Max divergence:  0.31E-03 at (  80,  18,  13)
       Min divergence: -0.82E-06 at (   2,   5,  10)
       Max VN number:   0.13E-02 at (  80,  20,  20)
       Radiation Loss to Boundaries:         3.209 kW
       Mesh    3
       Max CFL number:  0.93E+00 at (  59,   9,  15)
       Max divergence:  0.11E+02 at (  42,   7,   1)
       Min divergence: -0.28E+01 at (  59,   9,  15)
       Max VN number:   0.27E+00 at (  67,  20,  20)
       Total Heat Release Rate:           7129.450 kW
       Radiation Loss to Boundaries:     -1638.773 kW
       Mesh    4
       Max CFL number:  0.63E+00 at (   2,  10,  20)
       Max divergence:  0.10E+01 at (  19,   1,  13)
       Min divergence: -0.87E+00 at (  12,   1,   9)
       Max VN number:   0.21E+00 at (   1,   1,  20)
       Total Heat Release Rate:              6.790 kW
       Radiation Loss to Boundaries:      -234.030 kW
       Mesh    5
       Max CFL number:  0.59E-01 at (  12,   4,  13)
       Max divergence:  0.19E-04 at (   1,   2,   2)
       Min divergence: -0.10E-05 at (  62,   3,  10)
       Max VN number:   0.21E-01 at (   1,   1,  20)
       Radiation Loss to Boundaries:         0.148 kW
       Mesh    6
       Max CFL number:  0.59E-01 at (  39,  17,  14)
       Max divergence:  0.13E-05 at (  49,  11,  14)
       Min divergence: -0.12E-05 at (  59,   6,  12)
       Max VN number:   0.21E-01 at (  34,  20,  20)
       Mesh    7
       Max CFL number:  0.59E-01 at (  29,  17,  11)
       Max divergence:  0.12E-05 at (  56,  12,  12)
       Min divergence: -0.13E-05 at (  77,   8,  17)
       Max VN number:   0.21E-01 at (  37,   1,  20)
       Mesh    8
       Max CFL number:  0.60E-01 at (  15,   6,   8)
       Max divergence:  0.12E-05 at (  47,   7,  13)
       Min divergence: -0.12E-05 at (  22,  14,  13)
       Max VN number:   0.21E-01 at (  60,  20,  20)
 
       Time Step     400   July  1, 2020  14:10:23
       Step Size:    0.116E-01 s, Total Time:       6.62 s
       Pressure Iterations:      6
       Maximum Velocity Error:  0.89E-15 on Mesh   3 at (  81  19  16)
       Maximum Pressure Error:  0.25E+03 on Mesh   3 at (  43   9   1)
       ---------------------------------------------------------------
       Mesh    1
       Max CFL number:  0.10E-02 at (   4,   8,  11)
       Max divergence:  0.21E-05 at (  80,   1,   2)
       Min divergence: -0.12E-05 at (  17,  18,  10)
       Max VN number:   0.71E-03 at (  62,   6,  15)
       Radiation Loss to Boundaries:         0.005 kW
       Mesh    2
       Max CFL number:  0.59E-01 at (  80,  18,  20)
       Max divergence:  0.18E-01 at (  80,  18,  20)
       Min divergence: -0.70E-06 at (   2,   5,  10)
       Max VN number:   0.20E-01 at (  80,  20,  20)
       Radiation Loss to Boundaries:         3.897 kW
       Mesh    3
       Max CFL number:  0.88E+00 at (  57,  11,  13)
       Max divergence:  0.24E+02 at (  52,  13,   1)
       Min divergence: -0.27E+01 at (  52,  10,   1)
       Max VN number:   0.39E+00 at (  51,  11,  20)
       Total Heat Release Rate:           7706.189 kW
       Radiation Loss to Boundaries:     -1941.159 kW
       Mesh    4
       Max CFL number:  0.55E+00 at (   1,   1,  13)
       Max divergence:  0.77E+00 at (   1,   2,  20)
       Min divergence: -0.79E+00 at (  23,   2,   7)
       Max VN number:   0.21E+00 at (  12,  20,   4)
       Total Heat Release Rate:              0.224 kW
       Radiation Loss to Boundaries:      -193.434 kW
       Mesh    5
       Max CFL number:  0.50E-01 at (   1,   5,  18)
       Max divergence:  0.33E-04 at (   1,  10,   9)
       Min divergence: -0.11E-05 at (  70,  11,  18)
       Max VN number:   0.17E-01 at (   1,   1,  20)
       Radiation Loss to Boundaries:         0.344 kW
       Mesh    6
       Max CFL number:  0.50E-01 at (  21,  11,   4)
       Max divergence:  0.13E-05 at (  12,   8,   3)
       Min divergence: -0.12E-05 at (  44,  11,  14)
       Max VN number:   0.17E-01 at (  15,   1,  20)
       Mesh    7
       Max CFL number:  0.50E-01 at (  56,   3,   9)
       Max divergence:  0.12E-05 at (   2,  11,  11)
       Min divergence: -0.14E-05 at (   2,  17,  13)
       Max VN number:   0.17E-01 at (  28,   1,  20)
       Mesh    8
       Max CFL number:  0.50E-01 at (  34,  14,   9)
       Max divergence:  0.12E-05 at (  33,   8,  18)
       Min divergence: -0.14E-05 at (  12,   7,   6)
       Max VN number:   0.17E-01 at (  63,  20,  20)
 
       Time Step     500   July  1, 2020  14:12:31
       Step Size:    0.119E-01 s, Total Time:       7.83 s
       Pressure Iterations:      7
       Maximum Velocity Error:  0.64E-14 on Mesh   2 at (  81   6  16)
       Maximum Pressure Error:  0.42E+03 on Mesh   3 at (  43   6   1)
       ---------------------------------------------------------------
       Mesh    1
       Max CFL number:  0.10E-02 at (   4,   8,  11)
       Max divergence:  0.28E-05 at (  80,   1,   2)
       Min divergence: -0.12E-05 at (  17,  18,  10)
       Max VN number:   0.71E-03 at (  62,   6,  15)
       Radiation Loss to Boundaries:         0.009 kW
       Mesh    2
       Max CFL number:  0.17E+00 at (  79,  16,  19)
       Max divergence:  0.15E+00 at (  75,   7,  20)
       Min divergence: -0.14E+00 at (  74,  16,  19)
       Max VN number:   0.55E-01 at (  77,  20,  20)
       Radiation Loss to Boundaries:        -1.041 kW
       Mesh    3
       Max CFL number:  0.80E+00 at (  54,  10,  13)
       Max divergence:  0.13E+02 at (  43,   8,   1)
       Min divergence: -0.36E+01 at (  52,  10,  10)
       Max VN number:   0.39E+00 at (  58,  12,  20)
       Total Heat Release Rate:           8198.451 kW
       Radiation Loss to Boundaries:     -2154.881 kW
       Mesh    4
       Max CFL number:  0.61E+00 at (  14,  20,  16)
       Max divergence:  0.21E+01 at (   1,  18,  19)
       Min divergence: -0.12E+01 at (   1,  17,  19)
       Max VN number:   0.22E+00 at (  15,  20,  16)
       Total Heat Release Rate:              4.648 kW
       Radiation Loss to Boundaries:      -219.096 kW
       Mesh    5
       Max CFL number:  0.67E-01 at (   1,   3,  19)
       Max divergence:  0.56E-04 at (   1,   9,  14)
       Min divergence: -0.99E-06 at (  57,   3,  13)
       Max VN number:   0.23E-01 at (   1,   1,  20)
       Radiation Loss to Boundaries:         0.851 kW
       Mesh    6
       Max CFL number:  0.55E-01 at (  43,  16,  11)
       Max divergence:  0.13E-05 at (   6,  18,   4)
       Min divergence: -0.12E-05 at (  68,  17,   9)
       Max VN number:   0.19E-01 at (  14,   1,  20)
       Radiation Loss to Boundaries:         0.002 kW
       Mesh    7
       Max CFL number:  0.55E-01 at (  38,   3,   5)
       Max divergence:  0.12E-05 at (  16,   8,  15)
       Min divergence: -0.11E-05 at (  19,   8,  17)
       Max VN number:   0.19E-01 at (  32,   1,  20)
       Mesh    8
       Max CFL number:  0.55E-01 at (  28,   9,  15)
       Max divergence:  0.13E-05 at (  26,   6,   6)
       Min divergence: -0.13E-05 at (   8,   7,   6)
       Max VN number:   0.19E-01 at (  38,   1,  20)
 
       Time Step     600   July  1, 2020  14:14:34
       Step Size:    0.129E-01 s, Total Time:       9.06 s
       Pressure Iterations:      7
       Maximum Velocity Error:  0.11E-13 on Mesh   2 at (  81   5  14)
       Maximum Pressure Error:  0.43E+03 on Mesh   3 at (  43  14   1)
       ---------------------------------------------------------------
       Mesh    1
       Max CFL number:  0.11E-02 at (   4,   8,  11)
       Max divergence:  0.36E-05 at (  79,  20,   2)
       Min divergence: -0.12E-05 at (  17,  18,  10)
       Max VN number:   0.76E-03 at (  39,   9,   8)
       Radiation Loss to Boundaries:         0.015 kW
       Mesh    2
       Max CFL number:  0.19E+00 at (  79,  15,  17)
       Max divergence:  0.19E+00 at (  75,  20,  16)
       Min divergence: -0.21E+00 at (  77,  16,  16)
       Max VN number:   0.65E-01 at (  80,   1,  20)
       Radiation Loss to Boundaries:       -12.041 kW
       Mesh    3
       Max CFL number:  0.85E+00 at (  53,  10,  11)
       Max divergence:  0.16E+02 at (  42,   6,   1)
       Min divergence: -0.27E+01 at (  45,   9,   4)
       Max VN number:   0.36E+00 at (  57,   9,  20)
       Total Heat Release Rate:           9317.842 kW
       Radiation Loss to Boundaries:     -2527.051 kW
       Mesh    4
       Max CFL number:  0.85E+00 at (   4,  19,  20)
       Max divergence:  0.12E+01 at (  21,   2,  20)
       Min divergence: -0.13E+01 at (   2,   1,  16)
       Max VN number:   0.30E+00 at (   1,  20,  20)
       Total Heat Release Rate:             64.572 kW
       Radiation Loss to Boundaries:      -353.402 kW
       Mesh    5
       Max CFL number:  0.35E+00 at (   1,  13,  19)
       Max divergence:  0.37E+00 at (   4,  13,  20)
       Min divergence: -0.21E+00 at (   8,   2,  18)
       Max VN number:   0.10E+00 at (   1,   1,  20)
       Radiation Loss to Boundaries:       -16.597 kW
       Mesh    6
       Max CFL number:  0.63E-01 at (  66,   5,  16)
       Max divergence:  0.33E-05 at (   2,  18,   4)
       Min divergence: -0.11E-05 at (  22,   7,  16)
       Max VN number:   0.21E-01 at (  23,   1,  20)
       Radiation Loss to Boundaries:         0.011 kW
       Mesh    7
       Max CFL number:  0.63E-01 at (  50,  16,  16)
       Max divergence:  0.11E-05 at (  73,  16,  14)
       Min divergence: -0.11E-05 at (  79,   8,   5)
       Max VN number:   0.21E-01 at (  51,   1,  20)
       Mesh    8
       Max CFL number:  0.63E-01 at (   1,  16,  18)
       Max divergence:  0.11E-05 at (  28,  18,   9)
       Min divergence: -0.11E-05 at (  28,   6,  10)
       Max VN number:   0.21E-01 at (  42,   1,  20)
 
       Time Step     700   July  1, 2020  14:16:46
       Step Size:    0.127E-01 s, Total Time:      10.25 s
       Pressure Iterations:      8
       Maximum Velocity Error:  0.11E-13 on Mesh   2 at (  81   9  15)
       Maximum Pressure Error:  0.35E+03 on Mesh   3 at (  49  14   1)
       ---------------------------------------------------------------
       Mesh    1
       Max CFL number:  0.11E-02 at (   4,   8,  11)
       Max divergence:  0.38E-05 at (  78,  20,   3)
       Min divergence: -0.12E-05 at (  17,  18,  10)
       Max VN number:   0.74E-03 at (  22,  15,   2)
       Radiation Loss to Boundaries:         0.023 kW
       Mesh    2
       Max CFL number:  0.16E+00 at (  73,   7,  20)
       Max divergence:  0.13E+00 at (  74,  17,  14)
       Min divergence: -0.14E+00 at (  69,  20,  17)
       Max VN number:   0.57E-01 at (  68,   1,  20)
       Radiation Loss to Boundaries:       -21.902 kW
       Mesh    3
       Max CFL number:  0.84E+00 at (  69,  13,  20)
       Max divergence:  0.13E+02 at (  54,  10,   1)
       Min divergence: -0.30E+01 at (  45,   8,   1)
       Max VN number:   0.39E+00 at (  51,  12,  20)
       Total Heat Release Rate:           7419.503 kW
       Radiation Loss to Boundaries:     -1897.416 kW
       Mesh    4
       Max CFL number:  0.66E+00 at (  21,   1,  19)
       Max divergence:  0.17E+01 at (   9,   1,  13)
       Min divergence: -0.12E+01 at (  10,   1,  15)
       Max VN number:   0.27E+00 at (  11,   1,  14)
       Total Heat Release Rate:             77.038 kW
       Radiation Loss to Boundaries:      -308.476 kW
       Mesh    5
       Max CFL number:  0.43E+00 at (   4,  15,  19)
       Max divergence:  0.28E+00 at (   4,   6,  20)
       Min divergence: -0.22E+00 at (   6,   4,  20)
       Max VN number:   0.13E+00 at (   2,   1,  20)
       Radiation Loss to Boundaries:       -56.921 kW
       Mesh    6
       Max CFL number:  0.50E-01 at (   1,   8,  11)
       Max divergence:  0.51E-05 at (   1,  18,   3)
       Min divergence: -0.98E-06 at (  77,   5,  15)
       Max VN number:   0.16E-01 at (  69,   1,  20)
       Radiation Loss to Boundaries:         0.037 kW
       Mesh    7
       Max CFL number:  0.50E-01 at (  16,   5,  14)
       Max divergence:  0.11E-05 at (  61,  15,  14)
       Min divergence: -0.13E-05 at (  68,  16,  10)
       Max VN number:   0.16E-01 at (  41,   1,  20)
       Mesh    8
       Max CFL number:  0.50E-01 at (  14,  16,   3)
       Max divergence:  0.99E-06 at (  21,   6,   9)
       Min divergence: -0.11E-05 at (  18,  14,   5)
       Max VN number:   0.16E-01 at (  45,   1,  20)
 
       Time Step     800   July  1, 2020  14:18:52
       Step Size:    0.130E-01 s, Total Time:      11.53 s
       Pressure Iterations:     10
       Maximum Velocity Error:  0.66E-14 on Mesh   2 at (  81  14  17)
       Maximum Pressure Error:  0.59E+03 on Mesh   3 at (  61  16  20)
       ---------------------------------------------------------------
       Mesh    1
       Max CFL number:  0.11E-02 at (   4,   8,  11)
       Max divergence:  0.40E-05 at (  78,  20,   3)
       Min divergence: -0.11E-05 at (  17,  18,  10)
       Max VN number:   0.74E-03 at (  22,  15,   2)
       Radiation Loss to Boundaries:         0.033 kW
       Mesh    2
       Max CFL number:  0.16E+00 at (  50,   3,  19)
       Max divergence:  0.91E-01 at (  71,  11,  14)
       Min divergence: -0.11E+00 at (  50,   1,  18)
       Max VN number:   0.54E-01 at (  51,   1,  20)
       Radiation Loss to Boundaries:       -25.976 kW
       Mesh    3
       Max CFL number:  0.89E+00 at (  62,  16,  20)
       Max divergence:  0.15E+02 at (  42,  13,   1)
       Min divergence: -0.52E+01 at (  61,  15,  20)
       Max VN number:   0.73E+00 at (  61,  16,  20)
       Total Heat Release Rate:           8356.372 kW
       Radiation Loss to Boundaries:     -2064.994 kW
       Mesh    4
       Max CFL number:  0.70E+00 at (   8,   4,  20)
       Max divergence:  0.15E+01 at (   4,  20,  11)
       Min divergence: -0.97E+00 at (   4,  20,  13)
       Max VN number:   0.24E+00 at (  28,  20,  20)
       Total Heat Release Rate:              0.237 kW
       Radiation Loss to Boundaries:      -272.804 kW
       Mesh    5
       Max CFL number:  0.55E+00 at (   1,  18,  19)
       Max divergence:  0.32E+00 at (  30,   1,  20)
       Min divergence: -0.29E+00 at (  29,   2,  18)
       Max VN number:   0.17E+00 at (   1,  20,  20)
       Radiation Loss to Boundaries:      -114.531 kW
       Mesh    6
       Max CFL number:  0.58E-01 at (  19,  13,  12)
       Max divergence:  0.11E-04 at (   1,  12,   5)
       Min divergence: -0.11E-05 at (  71,   5,  15)
       Max VN number:   0.19E-01 at (   1,   1,  20)
       Radiation Loss to Boundaries:         0.099 kW
       Mesh    7
       Max CFL number:  0.58E-01 at (  49,  16,   4)
       Max divergence:  0.11E-05 at (  27,   5,   4)
       Min divergence: -0.11E-05 at (  31,  12,  12)
       Max VN number:   0.19E-01 at (  45,   1,  20)
       Mesh    8
       Max CFL number:  0.58E-01 at (  23,  12,   4)
       Max divergence:  0.99E-06 at (  33,   5,   7)
       Min divergence: -0.12E-05 at (  18,   6,  10)
       Max VN number:   0.19E-01 at (  51,   1,  20)
 
       Time Step     900   July  1, 2020  14:20:58
       Step Size:    0.143E-01 s, Total Time:      12.85 s
       Pressure Iterations:      8
       Maximum Velocity Error:  0.79E-14 on Mesh   2 at (  81  16  16)
       Maximum Pressure Error:  0.27E+03 on Mesh   3 at (  43   9   1)
       ---------------------------------------------------------------
       Mesh    1
       Max CFL number:  0.12E-02 at (   4,   8,  11)
       Max divergence:  0.45E-05 at (  79,   8,   9)
       Min divergence: -0.11E-05 at (  17,  18,  10)
       Max VN number:   0.80E-03 at (  22,  15,   2)
       Radiation Loss to Boundaries:         0.045 kW
       Mesh    2
       Max CFL number:  0.15E+00 at (  42,   6,  19)
       Max divergence:  0.10E+00 at (  39,  16,  20)
       Min divergence: -0.11E+00 at (  41,   1,  18)
       Max VN number:   0.54E-01 at (  41,   1,  18)
       Radiation Loss to Boundaries:       -25.051 kW
       Mesh    3
       Max CFL number:  0.87E+00 at (  68,   1,  20)
       Max divergence:  0.21E+02 at (  53,   7,   1)
       Min divergence: -0.50E+01 at (  53,  11,  11)
       Max VN number:   0.40E+00 at (  54,  10,  20)
       Total Heat Release Rate:           8651.662 kW
       Radiation Loss to Boundaries:     -2402.272 kW
       Mesh    4
       Max CFL number:  0.80E+00 at (   5,  10,  20)
       Max divergence:  0.12E+01 at (  11,  16,  20)
       Min divergence: -0.14E+01 at (   9,  12,  20)
       Max VN number:   0.24E+00 at (   4,   1,  20)
       Total Heat Release Rate:             50.337 kW
       Radiation Loss to Boundaries:      -327.282 kW
       Mesh    5
       Max CFL number:  0.66E+00 at (  13,  13,  17)
       Max divergence:  0.28E+00 at (   3,   1,  14)
       Min divergence: -0.25E+00 at (   2,   5,  20)
       Max VN number:   0.20E+00 at (   8,  20,  20)
       Radiation Loss to Boundaries:      -168.539 kW
       Mesh    6
       Max CFL number:  0.64E-01 at (   1,   5,  18)
[...]
       Max VN number:   0.16E+00 at (   1,  20,  20)
       Radiation Loss to Boundaries:      -149.131 kW
       Mesh    7
       Max CFL number:  0.29E+00 at (   1,  14,  19)
       Max divergence:  0.12E+00 at (   5,   8,  18)
       Min divergence: -0.10E+00 at (   4,   7,  19)
       Max VN number:   0.69E-01 at (   1,  16,  20)
       Radiation Loss to Boundaries:        -3.048 kW
       Mesh    8
       Max CFL number:  0.34E-01 at (  70,   8,   4)
       Max divergence:  0.13E-05 at (   1,  20,   1)
       Min divergence: -0.76E-06 at (  15,   5,   6)
       Max VN number:   0.90E-02 at (   7,  20,  20)
       Radiation Loss to Boundaries:         0.003 kW
 
       Time Step    1600   July  1, 2020  14:35:39
       Step Size:    0.147E-01 s, Total Time:      21.98 s
       Pressure Iterations:      7
       Maximum Velocity Error:  0.15E-13 on Mesh   2 at (  81  19  15)
       Maximum Pressure Error:  0.48E+03 on Mesh   3 at (  42   7   1)
       ---------------------------------------------------------------
       Mesh    1
       Max CFL number:  0.64E-01 at (  80,  13,  20)
       Max divergence:  0.17E-01 at (  78,  12,  20)
       Min divergence: -0.25E-01 at (  79,  12,  20)
       Max VN number:   0.22E-01 at (  80,   1,  20)
       Radiation Loss to Boundaries:         0.024 kW
       Mesh    2
       Max CFL number:  0.11E+00 at (  64,  15,  20)
       Max divergence:  0.56E-01 at (  47,   7,  20)
       Min divergence: -0.72E-01 at (  79,  14,  20)
       Max VN number:   0.51E-01 at (  48,   7,  20)
       Radiation Loss to Boundaries:       -35.230 kW
       Mesh    3
       Max CFL number:  0.90E+00 at (  64,  17,  18)
       Max divergence:  0.34E+02 at (  50,  14,   1)
       Min divergence: -0.38E+01 at (  48,  15,   9)
       Max VN number:   0.41E+00 at (  61,  12,  20)
       Total Heat Release Rate:           7804.343 kW
       Radiation Loss to Boundaries:     -2192.511 kW
       Mesh    4
       Max CFL number:  0.85E+00 at (   1,  20,  20)
       Max divergence:  0.97E+00 at (   9,  20,  17)
       Min divergence: -0.14E+01 at (  10,  20,  20)
       Max VN number:   0.32E+00 at (   1,  20,  20)
       Total Heat Release Rate:             27.913 kW
       Radiation Loss to Boundaries:      -270.588 kW
       Mesh    5
       Max CFL number:  0.65E+00 at (  18,  16,  18)
       Max divergence:  0.55E+00 at (  32,  17,   7)
       Min divergence: -0.50E+00 at (  27,  18,   6)
       Max VN number:   0.22E+00 at (  31,  20,  20)
       Radiation Loss to Boundaries:      -142.903 kW
       Mesh    6
       Max CFL number:  0.50E+00 at (  31,   7,  18)
       Max divergence:  0.41E+00 at (  13,  11,   7)
       Min divergence: -0.46E+00 at (  11,   5,   3)
       Max VN number:   0.17E+00 at (  35,   1,  20)
       Radiation Loss to Boundaries:      -134.406 kW
       Mesh    7
       Max CFL number:  0.40E+00 at (   1,   2,  17)
       Max divergence:  0.14E+00 at (   7,  20,  14)
       Min divergence: -0.17E+00 at (  19,  19,  19)
       Max VN number:   0.13E+00 at (   1,   1,  20)
       Radiation Loss to Boundaries:       -25.692 kW
       Mesh    8
       Max CFL number:  0.45E-01 at (  53,  16,  13)
       Max divergence:  0.26E-05 at (   1,  19,   3)
       Min divergence: -0.71E-06 at (  75,  16,   4)
       Max VN number:   0.12E-01 at (  36,  20,  20)
       Radiation Loss to Boundaries:         0.014 kW
 
       Time Step    1700   July  1, 2020  14:37:41
       Step Size:    0.123E-01 s, Total Time:      23.26 s
       Pressure Iterations:      7
       Maximum Velocity Error:  0.62E-14 on Mesh   2 at (  81  19  16)
       Maximum Pressure Error:  0.34E+03 on Mesh   3 at (  43  10   1)
       ---------------------------------------------------------------
       Mesh    1
       Max CFL number:  0.48E-01 at (  78,   4,  20)
       Max divergence:  0.11E-01 at (  76,   3,  20)
       Min divergence: -0.20E-01 at (  76,  11,  20)
       Max VN number:   0.16E-01 at (  77,   1,  20)
       Radiation Loss to Boundaries:        -0.055 kW
       Mesh    2
       Max CFL number:  0.12E+00 at (  80,  20,  19)
       Max divergence:  0.83E-01 at (  47,  17,  20)
       Min divergence: -0.71E-01 at (  75,   1,  20)
       Max VN number:   0.39E-01 at (  80,  20,  20)
       Radiation Loss to Boundaries:       -34.067 kW
       Mesh    3
       Max CFL number:  0.86E+00 at (  68,  14,  19)
       Max divergence:  0.11E+02 at (  48,   9,   8)
       Min divergence: -0.30E+01 at (  43,  11,   1)
       Max VN number:   0.26E+00 at (  33,   1,  20)
       Total Heat Release Rate:           8306.555 kW
       Radiation Loss to Boundaries:     -2289.716 kW
       Mesh    4
       Max CFL number:  0.67E+00 at (  35,   5,  19)
       Max divergence:  0.74E+00 at (  17,   3,  17)
       Min divergence: -0.74E+00 at (  15,   2,  16)
       Max VN number:   0.25E+00 at (   1,   1,  20)
       Total Heat Release Rate:              0.061 kW
       Radiation Loss to Boundaries:      -263.745 kW
       Mesh    5
       Max CFL number:  0.62E+00 at (   3,   9,  19)
       Max divergence:  0.36E+00 at (   8,   9,  20)
       Min divergence: -0.42E+00 at (   6,   1,   6)
       Max VN number:   0.17E+00 at (   4,  10,  20)
       Radiation Loss to Boundaries:      -149.014 kW
       Mesh    6
       Max CFL number:  0.41E+00 at (  29,   7,  12)
       Max divergence:  0.34E+00 at (  12,   5,   7)
       Min divergence: -0.33E+00 at (  61,   2,   9)
       Max VN number:   0.13E+00 at (  45,  20,  20)
       Radiation Loss to Boundaries:      -110.726 kW
       Mesh    7
       Max CFL number:  0.32E+00 at (   1,  13,  17)
       Max divergence:  0.14E+00 at (  29,  11,  14)
       Min divergence: -0.18E+00 at (   4,  13,  10)
       Max VN number:   0.98E-01 at (   9,   1,  20)
       Radiation Loss to Boundaries:       -48.193 kW
       Mesh    8
       Max CFL number:  0.44E-01 at (  51,  14,  16)
       Max divergence:  0.40E-05 at (   1,  10,   5)
       Min divergence: -0.80E-06 at (  76,   6,  17)
       Max VN number:   0.13E-01 at (   1,   1,  20)
       Radiation Loss to Boundaries:         0.036 kW
 
       Time Step    1800   July  1, 2020  14:39:38
       Step Size:    0.135E-01 s, Total Time:      24.65 s
       Pressure Iterations:      7
       Maximum Velocity Error:  0.78E-14 on Mesh   2 at (  81   1  20)
       Maximum Pressure Error:  0.22E+03 on Mesh   3 at (  49  12   8)
       ---------------------------------------------------------------
       Mesh    1
       Max CFL number:  0.47E-01 at (  75,   4,  20)
       Max divergence:  0.72E-02 at (  73,   8,  20)
       Min divergence: -0.16E-01 at (  74,   1,  20)
       Max VN number:   0.14E-01 at (  74,   4,  20)
       Radiation Loss to Boundaries:        -0.056 kW
       Mesh    2
       Max CFL number:  0.25E+00 at (  79,  18,  20)
       Max divergence:  0.15E+00 at (  78,  18,  20)
       Min divergence: -0.22E+00 at (  77,  18,  19)
       Max VN number:   0.70E-01 at (  77,  20,  20)
       Radiation Loss to Boundaries:       -39.055 kW
       Mesh    3
       Max CFL number:  0.92E+00 at (  51,   6,  13)
       Max divergence:  0.13E+02 at (  51,   9,   1)
       Min divergence: -0.30E+01 at (  63,   7,  20)
       Max VN number:   0.36E+00 at (  52,   8,  20)
       Total Heat Release Rate:          10340.652 kW
       Radiation Loss to Boundaries:     -2908.475 kW
       Mesh    4
       Max CFL number:  0.75E+00 at (   1,  16,  20)
       Max divergence:  0.64E+00 at (   7,  19,  20)
       Min divergence: -0.73E+00 at (   6,   1,  18)
       Max VN number:   0.25E+00 at (  18,   1,  20)
       Total Heat Release Rate:              0.049 kW
       Radiation Loss to Boundaries:      -215.235 kW
       Mesh    5
       Max CFL number:  0.61E+00 at (   9,   3,  16)
       Max divergence:  0.65E+00 at (  40,   1,  17)
       Min divergence: -0.34E+00 at (   5,  14,  16)
       Max VN number:   0.22E+00 at (   3,   1,  20)
       Radiation Loss to Boundaries:      -164.312 kW
       Mesh    6
       Max CFL number:  0.49E+00 at (  63,   1,  20)
       Max divergence:  0.26E+00 at (   7,  11,  20)
       Min divergence: -0.32E+00 at (   6,  12,   9)
       Max VN number:   0.18E+00 at (  63,   1,  20)
       Radiation Loss to Boundaries:       -92.167 kW
       Mesh    7
       Max CFL number:  0.42E+00 at (   6,   7,  16)
       Max divergence:  0.21E+00 at (  20,  18,   8)
       Min divergence: -0.19E+00 at (  38,   8,  12)
       Max VN number:   0.13E+00 at (   2,   1,  20)
       Radiation Loss to Boundaries:       -67.586 kW
       Mesh    8
       Max CFL number:  0.62E-01 at (   1,   7,  15)
       Max divergence:  0.78E-05 at (   1,  10,   6)
       Min divergence: -0.73E-06 at (  41,   5,  13)
       Max VN number:   0.19E-01 at (   1,   1,  20)
       Radiation Loss to Boundaries:         0.091 kW
 
       Time Step    1900   July  1, 2020  14:41:39
       Step Size:    0.141E-01 s, Total Time:      26.00 s
       Pressure Iterations:      5
       Maximum Velocity Error:  0.89E-15 on Mesh   2 at (  81   2  16)
       Maximum Pressure Error:  0.26E+03 on Mesh   3 at (  47  15   1)
       ---------------------------------------------------------------
       Mesh    1
       Max CFL number:  0.44E-01 at (  72,   4,  20)
       Max divergence:  0.56E-02 at (  71,   7,  20)
       Min divergence: -0.94E-02 at (  71,   3,  20)
       Max VN number:   0.13E-01 at (  71,   3,  20)
       Radiation Loss to Boundaries:        -0.039 kW
       Mesh    2
       Max CFL number:  0.25E+00 at (  73,   8,  20)
       Max divergence:  0.23E+00 at (  70,   1,  20)
       Min divergence: -0.19E+00 at (  80,   1,  14)
       Max VN number:   0.96E-01 at (  79,   1,  14)
       Radiation Loss to Boundaries:       -58.624 kW
       Mesh    3
       Max CFL number:  0.89E+00 at (  65,   2,  20)
       Max divergence:  0.13E+02 at (  43,   6,   2)
       Min divergence: -0.28E+01 at (  48,  11,  12)
       Max VN number:   0.37E+00 at (  48,   7,  20)
       Total Heat Release Rate:           7566.302 kW
       Radiation Loss to Boundaries:     -2311.106 kW
       Mesh    4
       Max CFL number:  0.68E+00 at (  29,  16,  20)
       Max divergence:  0.73E+00 at (  44,  12,  20)
       Min divergence: -0.76E+00 at (  32,  16,  20)
       Max VN number:   0.24E+00 at (  30,   1,  20)
       Total Heat Release Rate:              0.194 kW
       Radiation Loss to Boundaries:      -226.198 kW
       Mesh    5
       Max CFL number:  0.58E+00 at (  44,   2,  18)
       Max divergence:  0.42E+00 at (  37,   1,  12)
       Min divergence: -0.30E+00 at (  78,  15,   5)
       Max VN number:   0.19E+00 at (  44,   1,  20)
       Radiation Loss to Boundaries:      -155.597 kW
       Mesh    6
       Max CFL number:  0.44E+00 at (  10,  19,  20)
       Max divergence:  0.27E+00 at (  20,   9,  14)
       Min divergence: -0.24E+00 at (  58,  19,  10)
       Max VN number:   0.15E+00 at (  16,  20,  20)
       Radiation Loss to Boundaries:       -85.438 kW
       Mesh    7
       Max CFL number:  0.44E+00 at (   6,   8,  18)
       Max divergence:  0.23E+00 at (  26,   2,   9)
       Min divergence: -0.19E+00 at (  66,  18,  19)
       Max VN number:   0.13E+00 at (  19,   1,  20)
       Radiation Loss to Boundaries:       -78.525 kW
       Mesh    8
       Max CFL number:  0.45E-01 at (   1,  12,  18)
       Max divergence:  0.17E-04 at (   1,  10,  20)
       Min divergence: -0.55E-06 at (  59,   7,  17)
       Max VN number:   0.12E-01 at (   1,   1,  20)
       Radiation Loss to Boundaries:         0.258 kW
 
       Time Step    2000   July  1, 2020  14:43:35
       Step Size:    0.136E-01 s, Total Time:      27.34 s
       Pressure Iterations:      5
       Maximum Velocity Error:  0.18E-14 on Mesh   2 at (  81   1  16)
       Maximum Pressure Error:  0.29E+03 on Mesh   3 at (  43  11   1)
       ---------------------------------------------------------------
       Mesh    1
       Max CFL number:  0.36E-01 at (  71,   5,  20)
       Max divergence:  0.35E-02 at (  68,   5,  20)
       Min divergence: -0.77E-02 at (  69,   4,  20)
       Max VN number:   0.11E-01 at (  69,   6,  20)
       Radiation Loss to Boundaries:        -0.021 kW
       Mesh    2
       Max CFL number:  0.19E+00 at (  61,   7,  19)
       Max divergence:  0.20E+00 at (  63,  12,  20)
       Min divergence: -0.18E+00 at (  63,   2,  16)
       Max VN number:   0.52E-01 at (  62,   1,  20)
       Radiation Loss to Boundaries:       -65.801 kW
       Mesh    3
       Max CFL number:  0.82E+00 at (  60,  17,  20)
       Max divergence:  0.14E+02 at (  41,  14,   1)
       Min divergence: -0.27E+01 at (  43,  11,   1)
       Max VN number:   0.35E+00 at (  43,  20,  20)
       Total Heat Release Rate:           8431.565 kW
       Radiation Loss to Boundaries:     -2424.180 kW
       Mesh    4
       Max CFL number:  0.80E+00 at (   1,  19,  19)
       Max divergence:  0.11E+01 at (  21,   1,  17)
       Min divergence: -0.98E+00 at (   1,  14,  19)
       Max VN number:   0.26E+00 at (   4,  20,  20)
       Total Heat Release Rate:             86.269 kW
       Radiation Loss to Boundaries:      -385.530 kW
       Mesh    5
       Max CFL number:  0.55E+00 at (  10,  11,  19)
       Max divergence:  0.32E+00 at (  69,  14,   9)
       Min divergence: -0.36E+00 at (  68,  13,   8)
       Max VN number:   0.17E+00 at (  20,   1,  20)
       Radiation Loss to Boundaries:      -154.338 kW
       Mesh    6
       Max CFL number:  0.45E+00 at (  32,  18,  18)
       Max divergence:  0.29E+00 at (  61,  15,  11)
       Min divergence: -0.27E+00 at (  10,  19,   8)
       Max VN number:   0.16E+00 at (  31,  20,  20)
       Radiation Loss to Boundaries:       -83.062 kW
       Mesh    7
       Max CFL number:  0.40E+00 at (  16,  12,  18)
       Max divergence:  0.24E+00 at (   5,   1,  13)
       Min divergence: -0.21E+00 at (  15,   1,   6)
       Max VN number:   0.13E+00 at (   2,  20,   9)
       Radiation Loss to Boundaries:       -84.082 kW
       Mesh    8
       Max CFL number:  0.21E+00 at (   1,  12,  20)
       Max divergence:  0.91E-01 at (   1,   1,  20)
       Min divergence: -0.73E-01 at (   1,  13,  20)
       Max VN number:   0.56E-01 at (   1,   1,  20)
       Radiation Loss to Boundaries:         0.608 kW
 
       Time Step    2100   July  1, 2020  14:45:36
       Step Size:    0.150E-01 s, Total Time:      28.86 s
       Pressure Iterations:      8
       Maximum Velocity Error:  0.18E-13 on Mesh   2 at (  81  11  17)
       Maximum Pressure Error:  0.18E+03 on Mesh   3 at (  43  12   1)
       ---------------------------------------------------------------
       Mesh    1
       Max CFL number:  0.38E-01 at (  68,   6,  20)
       Max divergence:  0.32E-02 at (  66,   6,  20)
       Min divergence: -0.52E-02 at (  67,   5,  20)
       Max VN number:   0.12E-01 at (  67,   6,  20)
       Radiation Loss to Boundaries:         0.004 kW
       Mesh    2
       Max CFL number:  0.17E+00 at (  49,   7,  19)
       Max divergence:  0.11E+00 at (  41,   8,  20)
       Min divergence: -0.92E-01 at (  45,   4,  20)
       Max VN number:   0.52E-01 at (  50,   1,  20)
       Radiation Loss to Boundaries:       -65.820 kW
       Mesh    3
       Max CFL number:  0.87E+00 at (  47,  16,  13)
       Max divergence:  0.14E+02 at (  50,  17,   1)
       Min divergence: -0.29E+01 at (  62,   2,  19)
       Max VN number:   0.39E+00 at (  47,   8,  20)
       Total Heat Release Rate:           6436.544 kW
       Radiation Loss to Boundaries:     -1916.312 kW
       Mesh    4
       Max CFL number:  0.78E+00 at (   5,  11,  19)
       Max divergence:  0.93E+00 at (   4,  20,  18)
       Min divergence: -0.71E+00 at (   1,   8,  20)
       Max VN number:   0.24E+00 at (  20,  20,  20)
       Total Heat Release Rate:              0.087 kW
       Radiation Loss to Boundaries:      -359.577 kW
       Mesh    5
       Max CFL number:  0.64E+00 at (  20,   4,  18)
       Max divergence:  0.22E+00 at (   4,   5,  20)
       Min divergence: -0.31E+00 at (   9,   5,  18)
       Max VN number:   0.21E+00 at (  16,   1,  20)
       Radiation Loss to Boundaries:      -158.131 kW
       Mesh    6
       Max CFL number:  0.45E+00 at (  38,  19,  19)
       Max divergence:  0.25E+00 at (   5,  14,   6)
       Min divergence: -0.26E+00 at (  16,  18,   7)
       Max VN number:   0.16E+00 at (  37,  20,  20)
       Radiation Loss to Boundaries:       -78.731 kW
       Mesh    7
       Max CFL number:  0.43E+00 at (  25,  14,  17)
       Max divergence:  0.14E+00 at (  52,  20,   8)
       Min divergence: -0.22E+00 at (  50,   4,   9)
       Max VN number:   0.15E+00 at (   2,  20,  20)
       Radiation Loss to Boundaries:       -77.452 kW
       Mesh    8
       Max CFL number:  0.25E+00 at (  13,   1,  18)
       Max divergence:  0.15E+00 at (  17,   1,  18)
       Min divergence: -0.14E+00 at (  13,   4,  14)
       Max VN number:   0.10E+00 at (   7,   1,  11)
       Radiation Loss to Boundaries:       -15.587 kW
 
       Time Step    2182   July  1, 2020  14:47:12
       Step Size:    0.602E-02 s, Total Time:      30.00 s
       Pressure Iterations:      9
       Maximum Velocity Error:  0.25E-13 on Mesh   2 at (  81  20  14)
       Maximum Pressure Error:  0.32E+03 on Mesh   3 at (  43  14   1)
       ---------------------------------------------------------------
       Mesh    1
       Max CFL number:  0.14E-01 at (  66,   6,  20)
       Max divergence:  0.24E-02 at (  64,   1,  20)
       Min divergence: -0.45E-02 at (  65,   5,  20)
       Max VN number:   0.44E-02 at (  65,   6,  20)
       Radiation Loss to Boundaries:         0.022 kW
       Mesh    2
       Max CFL number:  0.61E-01 at (  36,   8,  20)
       Max divergence:  0.11E+00 at (  35,   8,  20)
       Min divergence: -0.13E+00 at (  36,   8,  20)
       Max VN number:   0.21E-01 at (  36,   8,  20)
       Radiation Loss to Boundaries:       -65.535 kW
       Mesh    3
       Max CFL number:  0.35E+00 at (  61,  18,  20)
       Max divergence:  0.18E+02 at (  42,   5,   1)
       Min divergence: -0.32E+01 at (  45,   5,  11)
       Max VN number:   0.19E+00 at (  51,  19,  20)
       Total Heat Release Rate:           9131.064 kW
       Radiation Loss to Boundaries:     -2801.950 kW
       Mesh    4
       Max CFL number:  0.35E+00 at (   1,  14,  20)
       Max divergence:  0.90E+00 at (   9,  17,  20)
       Min divergence: -0.47E+00 at (   2,  15,  19)
       Max VN number:   0.96E-01 at (   5,   1,  20)
       Total Heat Release Rate:              0.045 kW
       Radiation Loss to Boundaries:      -331.281 kW
       Mesh    5
       Max CFL number:  0.25E+00 at (  14,  19,  19)
       Max divergence:  0.47E+00 at (  10,  15,  18)
       Min divergence: -0.36E+00 at (  19,  19,  20)
       Max VN number:   0.90E-01 at (  14,  20,  20)
       Radiation Loss to Boundaries:      -184.646 kW
       Mesh    6
       Max CFL number:  0.18E+00 at (  79,  15,  17)
       Max divergence:  0.25E+00 at (  39,  17,  20)
       Min divergence: -0.24E+00 at (  49,  10,   9)
       Max VN number:   0.65E-01 at (  69,  20,  20)
       Radiation Loss to Boundaries:       -74.008 kW
       Mesh    7
       Max CFL number:  0.19E+00 at (  17,  19,  18)
       Max divergence:  0.17E+00 at (  57,  15,  12)
       Min divergence: -0.19E+00 at (  71,  18,   7)
       Max VN number:   0.63E-01 at (  14,  20,  20)
       Radiation Loss to Boundaries:       -70.373 kW
       Mesh    8
       Max CFL number:  0.12E+00 at (  24,   4,  17)
       Max divergence:  0.16E+00 at (  30,   6,  20)
       Min divergence: -0.15E+00 at (  12,   1,   9)
       Max VN number:   0.41E-01 at (  26,   1,  16)
       Radiation Loss to Boundaries:       -28.338 kW
 


 Time Stepping Wall Clock Time (s):     2737.608
 Total Elapsed Wall Clock Time (s):     2744.473

STOP: FDS completed successfully (CHID: tunnel_demo_glmat)
