
 Fire Dynamics Simulator

 Current Date     : November  6, 2018  08:49:51
 Revision         : FDS6.7.0-727-g3791e9f67-master
 Revision Date    : Wed Oct 17 18:00:38 2018 +0200
 Compiler         : Intel ifort 18.0.3
 Compilation Date : Nov 02, 2018  16:33:45

 MPI Enabled;    Number of MPI Processes:       4
 OpenMP Enabled; Number of OpenMP Threads:      4

 MPI version: 3.0
 MPI library version: Open MPI v1.8.3, package: Open MPI gforney@bluesky.el.nist.gov Distribution, ident: 1.8.3, Sep 25, 2014

 Job TITLE        : Basic Poisson test of default ScaRC solver on 2D-pipe geometry with 4 meshes
 Job ID string    : poisson2d_4mesh_scarc


 Grid Dimensions, Mesh     1

   Cells in the X Direction            16
   Cells in the Y Direction             1
   Cells in the Z Direction            16


 Physical Dimensions, Mesh     1

   Length (m)                       0.400
   Width  (m)                       0.020
   Height (m)                       0.400
   Initial Time Step (s)            0.002

 Grid Dimensions, Mesh     2

   Cells in the X Direction            16
   Cells in the Y Direction             1
   Cells in the Z Direction            16


 Physical Dimensions, Mesh     2

   Length (m)                       0.400
   Width  (m)                       0.020
   Height (m)                       0.400
   Initial Time Step (s)            0.002

 Grid Dimensions, Mesh     3

   Cells in the X Direction            16
   Cells in the Y Direction             1
   Cells in the Z Direction            16


 Physical Dimensions, Mesh     3

   Length (m)                       0.400
   Width  (m)                       0.020
   Height (m)                       0.400
   Initial Time Step (s)            0.002

 Grid Dimensions, Mesh     4

   Cells in the X Direction            16
   Cells in the Y Direction             1
   Cells in the Z Direction            16


 Physical Dimensions, Mesh     4

   Length (m)                       0.400
   Width  (m)                       0.020
   Height (m)                       0.400
   Initial Time Step (s)            0.002


 Miscellaneous Parameters

   Simulation Start Time (s)          0.0
   Simulation End Time (s)            0.5
   Ambient Temperature (C)          20.00


 Mass Fraction Transformation Matrix to Convert Species Mixtures (Columns) to Primitive Species (Rows)

                         AIR     
   NITROGEN              0.763077
   OXYGEN                0.231181
   CARBON DIOXIDE        0.000592
   WATER VAPOR           0.005149


 Primitive Species Information

   NITROGEN
   Gas Species
   Molecular Weight (g/mol)            28.01340
   Ambient Density (kg/m^3)            1.165
   Enthalpy of Formation (J/kg)        0.00E+00

   OXYGEN
   Gas Species
   Molecular Weight (g/mol)            31.99880
   Ambient Density (kg/m^3)            1.330
   Enthalpy of Formation (J/kg)        0.00E+00

   CARBON DIOXIDE
   Gas Species
   Molecular Weight (g/mol)            44.00950
   Ambient Density (kg/m^3)            1.830
   Enthalpy of Formation (J/kg)       -8.94E+06

   WATER VAPOR
   Gas Species
   Molecular Weight (g/mol)            18.01528
   Ambient Density (kg/m^3)            0.749
   Enthalpy of Formation (J/kg)       -1.34E+07


 Tracked (Lumped) Species Information

   AIR
   Molecular Weight (g/mol)            28.76564
   Ambient Density (kg/m^3)            1.196
   Initial Mass Fraction               1.000
   Enthalpy of Formation (J/kg)     -7.44E+04

   Sub Species                    Mass Fraction     Mole Fraction
   NITROGEN                       7.630774E-01      7.835682E-01
   OXYGEN                         2.311814E-01      2.078229E-01
   CARBON DIOXIDE                 5.919362E-04      3.869034E-04
   WATER VAPOR                    5.149269E-03      8.222023E-03
 
     Viscosity (kg/m/s) Ambient,  293 K:  1.80E-05
                                  500 K:  2.61E-05
                                 1000 K:  4.13E-05
                                 1500 K:  5.37E-05
   Therm. Cond. (W/m/K) Ambient,  293 K:  2.56E-02
                                  500 K:  3.81E-02
                                 1000 K:  6.68E-02
                                 1500 K:  9.24E-02
        Enthalpy (J/kg) Ambient,  293 K: -7.97E+04
                                  500 K:  1.33E+05
                                 1000 K:  6.82E+05
                                 1500 K:  1.28E+06
    Spec. Heat (J/kg/K) Ambient,  293 K:  1.02E+03
                                  500 K:  1.04E+03
                                 1000 K:  1.16E+03
                                 1500 K:  1.23E+03
   Diff. Coeff. (m^2/s) Ambient,  293 K:  1.99E-05
                                  500 K:  4.96E-05
                                 1000 K:  1.58E-04
                                 1500 K:  3.09E-04


 Material Information


 Surface Conditions

   0 INERT (DEFAULT)

   1 INFLOW
     Normal Velocity (m/s)        -2.000
     AIR Mass Fraction         1.000

   2 OPEN
     Passive Vent to Atmosphere

   3 MIRROR
     Symmetry Plane

   4 INTERPOLATED

   5 PERIODIC

   6 HVAC

   7 MASSLESS TRACER

   8 DROPLET

   9 VEGETATION

  10 EVACUATION_OUTFLOW
     Normal Velocity (m/s)         0.000

  11 MASSLESS TARGET

  12 PERIODIC WIND

  13 SLICE


 Device Coordinates

     1 Coords:     0.64     0.00     0.41, Make: null, ID: u-vel, Quantity: U-VELOCITY
     2 Coords:     0.64     0.00     0.41, Make: null, ID: w-vel, Quantity: W-VELOCITY
     3 Coords:     0.64     0.00     0.41, Make: null, ID: pres, Quantity: PRESSURE
     4 Coords:     0.00     0.00     0.00, Make: null, ID: error, Quantity: MAXIMUM VELOCITY ERROR
     5 Coords:     0.00     0.00     0.00, Make: null, ID: iter, Quantity: PRESSURE ITERATIONS
     6 Coords:     0.00     0.00     0.00, Make: null, ID: scarc-iter, Quantity: SCARC ITERATIONS
     7 Coords:     0.00     0.00     0.00, Make: null, ID: scarc-rate, Quantity: SCARC CONVERGENCE RATE
     8 Coords:     0.00     0.00     0.00, Make: null, ID: scarc-res, Quantity: SCARC RESIDUAL


 Slice File Information, Mesh     1

   Sampling Interval (s)             0.001

   1 Nodes:   0  16   1   1   0  16, Quantity: VELOCITY
   2 Nodes:   0  16   1   1   0  16, Quantity: U-VELOCITY
   3 Nodes:   0  16   1   1   0  16, Quantity: W-VELOCITY
   4 Nodes:   0  16   1   1   0  16, Quantity: PRESSURE
   5 Nodes:   0  16   1   1   0  16, Quantity: H


 Radiation Model Information

   Number of control angles   60
   Time step increment         2
   Angle increment             4
   Phi band   N_theta Solid angle
     1:       60     0.209
   Using gray gas absorption.
   Mean beam length  0.100 m


 SCARC Information

   Discretization        STRUCTURED
   Global solver             KRYLOV
   Preconditioner               FFT
   Max iterations              1000
   Stopping accuracy       0.10E-07
 
 

 Run Time Diagnostics

       Time Step       1   November  6, 2018  08:49:52
       Step Size:    0.200E-02 s, Total Time:      0.002 s
       Pressure Iterations:      1
       Maximum Velocity Error:  0.58E-02 on Mesh   1 at (   7   1   9)
       Maximum Pressure Error:  0.00E+00 on Mesh   1 at (   0   0   0)
       ScaRC: iterations    43, residual  0.46E-08, convergence rate   0.54E+00
       ---------------------------------------------------------------
       Mesh    1
       Max CFL number:  0.33E-02 at (   1,   1,  10)
       Max divergence:  0.97E-06 at (   1,   1,  11)
       Min divergence: -0.13E-05 at (  16,   1,   7)
       Max VN number:   0.27E-03 at (  16,   1,  16)
       Mesh    2
       Max CFL number:  0.20E-02 at (   1,   1,  16)
       Max divergence:  0.62E-06 at (  16,   1,  16)
       Min divergence: -0.20E-06 at (   1,   1,   1)
       Max VN number:   0.27E-03 at (  16,   1,  16)
       Mesh    3
       Max CFL number:  0.20E-02 at (  16,   1,   1)
       Max divergence:  0.55E-06 at (   1,   1,   1)
       Min divergence: -0.23E-06 at (  16,   1,  16)
       Max VN number:   0.27E-03 at (  16,   1,  16)
       Mesh    4
       Max CFL number:  0.12E-02 at (   1,   1,   1)
       Max divergence: -0.24E-06 at (  16,   1,   1)
       Min divergence: -0.28E-05 at (   1,   1,   3)
       Max VN number:   0.27E-03 at (  16,   1,  16)
 
       Time Step       2   November  6, 2018  08:49:52
       Step Size:    0.200E-02 s, Total Time:      0.004 s
       Pressure Iterations:      1
       Maximum Velocity Error:  0.49E-02 on Mesh   1 at (   7   1   9)
       Maximum Pressure Error:  0.00E+00 on Mesh   1 at (   0   0   0)
       ScaRC: iterations    41, residual  0.52E-08, convergence rate   0.53E+00
       ---------------------------------------------------------------
       Mesh    1
       Max CFL number:  0.67E-02 at (   1,   1,  10)
       Max divergence:  0.22E-05 at (   1,   1,  11)
       Min divergence: -0.24E-05 at (   1,   1,   6)
       Max VN number:   0.27E-03 at (   1,   1,  16)
       Mesh    2
       Max CFL number:  0.39E-02 at (   1,   1,  16)
       Max divergence:  0.15E-05 at (  16,   1,  16)
       Min divergence: -0.13E-06 at (   1,   1,   1)
       Max VN number:   0.27E-03 at (   9,   1,  16)
       Mesh    3
       Max CFL number:  0.39E-02 at (  16,   1,   1)
       Max divergence:  0.15E-05 at (   1,   1,   1)
       Min divergence: -0.15E-06 at (  16,   1,  16)
       Max VN number:   0.27E-03 at (   1,   1,  16)
       Mesh    4
       Max CFL number:  0.24E-02 at (   1,   1,   1)
       Max divergence: -0.20E-06 at (  16,   1,   1)
       Min divergence: -0.14E-05 at (   1,   1,   1)
       Max VN number:   0.27E-03 at (  16,   1,  16)
 
       Time Step       3   November  6, 2018  08:49:52
       Step Size:    0.200E-02 s, Total Time:      0.006 s
       Pressure Iterations:      1
       Maximum Velocity Error:  0.12E-02 on Mesh   1 at (   7   1   9)
       Maximum Pressure Error:  0.00E+00 on Mesh   1 at (   0   0   0)
       ScaRC: iterations    40, residual  0.42E-08, convergence rate   0.54E+00
       ---------------------------------------------------------------
       Mesh    1
       Max CFL number:  0.10E-01 at (   1,   1,  10)
       Max divergence:  0.35E-05 at (   1,   1,  11)
       Min divergence: -0.35E-05 at (   1,   1,   6)
       Max VN number:   0.27E-03 at (   5,   1,  16)
       Mesh    2
       Max CFL number:  0.59E-02 at (   1,   1,  16)
       Max divergence:  0.24E-05 at (  16,   1,  16)
       Min divergence: -0.12E-06 at (   1,   1,   1)
       Max VN number:   0.27E-03 at (   8,   1,  16)
       Mesh    3
       Max CFL number:  0.59E-02 at (  16,   1,   1)
       Max divergence:  0.24E-05 at (   1,   1,   1)
       Min divergence: -0.14E-06 at (  16,   1,  16)
       Max VN number:   0.27E-03 at (   1,   1,  16)
       Mesh    4
       Max CFL number:  0.37E-02 at (   1,   1,   1)
       Max divergence: -0.20E-06 at (  16,   1,   1)
       Min divergence: -0.13E-05 at (   1,   1,   1)
       Max VN number:   0.27E-03 at (  16,   1,  16)
 
       Time Step       4   November  6, 2018  08:49:52
       Step Size:    0.200E-02 s, Total Time:      0.008 s
       Pressure Iterations:      1
       Maximum Velocity Error:  0.13E-02 on Mesh   1 at (   7   1   9)
       Maximum Pressure Error:  0.00E+00 on Mesh   1 at (   0   0   0)
       ScaRC: iterations    40, residual  0.63E-08, convergence rate   0.54E+00
       ---------------------------------------------------------------
       Mesh    1
       Max CFL number:  0.14E-01 at (   1,   1,  10)
       Max divergence:  0.47E-05 at (   1,   1,  11)
       Min divergence: -0.47E-05 at (   1,   1,   6)
       Max VN number:   0.27E-03 at (   7,   1,  16)
       Mesh    2
       Max CFL number:  0.79E-02 at (   1,   1,  16)
       Max divergence:  0.33E-05 at (  16,   1,  16)
       Min divergence: -0.74E-07 at (   1,   1,   1)
       Max VN number:   0.27E-03 at (   8,   1,  16)
       Mesh    3
       Max CFL number:  0.78E-02 at (  16,   1,   1)
       Max divergence:  0.33E-05 at (   1,   1,   1)
       Min divergence: -0.85E-07 at (  16,   1,  16)
       Max VN number:   0.27E-03 at (   1,   1,  16)
       Mesh    4
       Max CFL number:  0.49E-02 at (   1,   1,   1)
       Max divergence: -0.84E-07 at (   1,   1,   2)
       Min divergence: -0.65E-06 at (   3,   1,  16)
       Max VN number:   0.27E-03 at (  16,   1,  16)
 
       Time Step       5   November  6, 2018  08:49:53
       Step Size:    0.200E-02 s, Total Time:       0.01 s
       Pressure Iterations:      1
       Maximum Velocity Error:  0.18E-02 on Mesh   1 at (   7   1   9)
       Maximum Pressure Error:  0.00E+00 on Mesh   1 at (   0   0   0)
       ScaRC: iterations    40, residual  0.79E-08, convergence rate   0.54E+00
       ---------------------------------------------------------------
       Mesh    1
       Max CFL number:  0.17E-01 at (   1,   1,  10)
       Max divergence:  0.59E-05 at (   1,   1,  11)
       Min divergence: -0.58E-05 at (   1,   1,   6)
       Max VN number:   0.27E-03 at (   8,   1,  16)
       Mesh    2
       Max CFL number:  0.99E-02 at (   1,   1,  16)
       Max divergence:  0.41E-05 at (  16,   1,  16)
       Min divergence: -0.66E-07 at (   1,   1,   1)
       Max VN number:   0.27E-03 at (   8,   1,  16)
       Mesh    3
       Max CFL number:  0.98E-02 at (  16,   1,   1)
       Max divergence:  0.41E-05 at (   1,   1,   1)
       Min divergence: -0.77E-07 at (  16,   1,  16)
       Max VN number:   0.27E-03 at (   1,   1,  16)
       Mesh    4
       Max CFL number:  0.61E-02 at (   1,   1,   1)
       Max divergence:  0.14E-06 at (   1,   1,   2)
       Min divergence: -0.64E-06 at (   3,   1,  16)
       Max VN number:   0.27E-03 at (  16,   1,  16)
 
