
 Fire Dynamics Simulator

 Current Date     : July 15, 2020  15:55:30
 Revision         : FDS6.7.4-1001-g3529ee9-master
 Revision Date    : Wed Jul 15 15:36:03 2020 +0200
 Compiler         : Intel ifort 19.0.5.281
 Compilation Date : Jul 15, 2020 15:36:20

 MPI Enabled;    Number of MPI Processes:       4
 OpenMP Enabled; Number of OpenMP Threads:      4

 MPI version: 3.1
 MPI library version: Intel(R) MPI Library 2018 Update 1 for Linux* OS


 Job TITLE        : Simple 2D Tunnel
 Job ID string    : dancing_eddies_tight


 Grid Dimensions, Mesh     1

   Cells in the X Direction            75
   Cells in the Y Direction             1
   Cells in the Z Direction            40
   Number of Grid Cells              3000


 Physical Dimensions, Mesh     1

   Length (m)                       0.075
   Width  (m)                       0.002
   Height (m)                       0.040
   Initial Time Step (s)            0.004

 Grid Dimensions, Mesh     2

   Cells in the X Direction            75
   Cells in the Y Direction             1
   Cells in the Z Direction            40
   Number of Grid Cells              3000


 Physical Dimensions, Mesh     2

   Length (m)                       0.075
   Width  (m)                       0.002
   Height (m)                       0.040
   Initial Time Step (s)            0.004

 Grid Dimensions, Mesh     3

   Cells in the X Direction            75
   Cells in the Y Direction             1
   Cells in the Z Direction            40
   Number of Grid Cells              3000


 Physical Dimensions, Mesh     3

   Length (m)                       0.075
   Width  (m)                       0.002
   Height (m)                       0.040
   Initial Time Step (s)            0.004

 Grid Dimensions, Mesh     4

   Cells in the X Direction            75
   Cells in the Y Direction             1
   Cells in the Z Direction            40
   Number of Grid Cells              3000


 Physical Dimensions, Mesh     4

   Length (m)                       0.075
   Width  (m)                       0.002
   Height (m)                       0.040
   Initial Time Step (s)            0.004

Total Number of Grid Cells         12000


 Miscellaneous Parameters

   Simulation Start Time (s)          0.0
   Simulation End Time (s)            2.0
   Ambient Temperature (C):         20.00


 Mass Fraction Transformation Matrix to Convert Species Mixtures (Columns) to Primitive Species (Rows)

                         AIR     
   AIR                   1.000000


 Primitive Species Information

   AIR
   Gas Species
   Molecular Weight (g/mol)            28.01340
   Ambient Density (kg/m^3)            1.165
   Enthalpy of Formation (J/kg)        0.00E+00


 Tracked (Lumped) Species Information

   AIR
   Molecular Weight (g/mol)            28.01340
   Ambient Density (kg/m^3)            1.165
   Initial Mass Fraction               1.000
   Enthalpy of Formation (J/kg)      0.00E+00

   Sub Species                    Mass Fraction     Mole Fraction
   AIR                            1.000000E+00      1.000000E+00
 
     Viscosity (kg/m/s) Ambient,  293 K:  1.20E-05
                                  500 K:  1.20E-05
                                 1000 K:  1.20E-05
                                 1500 K:  1.20E-05
   Therm. Cond. (W/m/K) Ambient,  293 K:  1.76E-02
                                  500 K:  1.76E-02
                                 1000 K:  1.76E-02
                                 1500 K:  1.76E-02
        Enthalpy (J/kg) Ambient,  293 K:  3.05E+05
                                  500 K:  5.19E+05
                                 1000 K:  1.04E+06
                                 1500 K:  1.56E+06
    Spec. Heat (J/kg/K) Ambient,  293 K:  1.04E+03
                                  500 K:  1.04E+03
                                 1000 K:  1.04E+03
                                 1500 K:  1.04E+03
   Diff. Coeff. (m^2/s) Ambient,  293 K:  1.99E-05
                                  500 K:  4.93E-05
                                 1000 K:  1.57E-04
                                 1500 K:  3.07E-04


 Material Information


 Surface Conditions

   0 INERT

   1 WALL (DEFAULT)

   2 PLATE

   3 BLOW
     Normal Velocity (m/s)        -0.500
     AIR Mass Fraction         1.000

   4 OPEN
     Passive Vent to Atmosphere

   5 MIRROR
     Symmetry Plane

   6 INTERPOLATED

   7 PERIODIC

   8 HVAC

   9 MASSLESS TRACER

  10 DROPLET

  11 EVACUATION_OUTFLOW
     Normal Velocity (m/s)         0.000

  12 MASSLESS TARGET

  13 PERIODIC WIND


 Device Coordinates

     1 Coords:      0.200000      0.000000      0.000000, Make: null, ID: pres, Quantity: PRESSURE
     2 Coords:      0.000010      0.000000      0.000000, Make: null, ID: error, Quantity: MAXIMUM VELOCITY ERROR
     3 Coords:      0.000010      0.000000      0.000000, Make: null, ID: iter, Quantity: PRESSURE ITERATIONS
     4 Coords:      0.000010      0.000000      0.000000, Make: null, ID: cpu, Quantity: CPU TIME


 Slice File Information, Mesh     1

   Sampling Interval (s)             0.002

   1 Nodes:   0  75   1   1   0  40, Quantity: VELOCITY
   2 Nodes:   0  75   1   1   0  40, Quantity: U-VELOCITY
   3 Nodes:   0  75   1   1   0  40, Quantity: W-VELOCITY
   4 Nodes:   0  75   1   1   0  40, Quantity: H
   5 Nodes:   0  75   1   1   0  40, Quantity: PRESSURE


 Radiation Model Information

   Number of control angles   60
   Time step increment         2
   Angle increment             4
   Phi band   N_theta Solid angle
     1:       60     0.209
 
 

 Run Time Diagnostics

       Time Step       1   July 15, 2020  15:55:33
       Step Size:    0.395E-02 s, Total Time:      0.004 s
       Pressure Iterations:   3044
       Maximum Velocity Error:  0.10E-04 on Mesh   1 at (  76   1  20)
       Maximum Pressure Error:  0.64E-10 on Mesh   1 at (   4   1  39)
       ---------------------------------------------------------------
       Mesh    1
       Max CFL number:  0.12E-01 at (  20,   1,  24)
       Max divergence:  0.55E-12 at (  32,   1,   2)
       Min divergence: -0.61E-12 at (  31,   1,  38)
       Max VN number:   0.23E+00 at (  75,   1,  40)
       Mesh    2
       Max CFL number:  0.30E-01 at (  28,   1,  15)
       Max divergence:  0.33E-12 at (   1,   1,  11)
       Min divergence: -0.30E-12 at (  75,   1,  32)
       Max VN number:   0.23E+00 at (  75,   1,  40)
       Mesh    3
       Max CFL number:  0.77E-02 at (   1,   1,   5)
       Max divergence:  0.27E-12 at (   1,   1,  29)
       Min divergence: -0.22E-12 at (   9,   1,  17)
       Max VN number:   0.23E+00 at (  75,   1,  40)
       Mesh    4
       Max CFL number:  0.77E-02 at (   1,   1,   5)
       Max divergence:  0.12E-12 at (   1,   1,   8)
       Min divergence: -0.96E-13 at (  10,   1,  14)
       Max VN number:   0.23E+00 at (  75,   1,  40)
 
       Time Step       2   July 15, 2020  15:55:33
       Step Size:    0.395E-02 s, Total Time:      0.008 s
       Pressure Iterations:    317
       Maximum Velocity Error:  0.10E-04 on Mesh   1 at (  76   1  20)
       Maximum Pressure Error:  0.30E-09 on Mesh   1 at (  39   1  39)
       ---------------------------------------------------------------
       Mesh    1
       Max CFL number:  0.24E-01 at (  20,   1,  24)
       Max divergence:  0.57E-12 at (  23,   1,  19)
       Min divergence: -0.62E-12 at (   3,   1,  14)
       Max VN number:   0.23E+00 at (  32,   1,   2)
       Mesh    2
       Max CFL number:  0.59E-01 at (  25,   1,  26)
       Max divergence:  0.46E-12 at (   1,   1,   8)
       Min divergence: -0.28E-12 at (  13,   1,   9)
       Max VN number:   0.23E+00 at (   1,   1,  11)
       Mesh    3
       Max CFL number:  0.16E-01 at (   1,   1,   5)
       Max divergence:  0.45E-12 at (   1,   1,   5)
       Min divergence: -0.28E-12 at (   5,   1,   2)
       Max VN number:   0.23E+00 at (   1,   1,  32)
       Mesh    4
       Max CFL number:  0.16E-01 at (   1,   1,   5)
       Max divergence:  0.15E-12 at (   1,   1,  21)
       Min divergence: -0.91E-13 at (   3,   1,  31)
       Max VN number:   0.23E+00 at (   1,   1,   8)
 
       Time Step       3   July 15, 2020  15:55:33
       Step Size:    0.395E-02 s, Total Time:       0.01 s
       Pressure Iterations:     41
       Maximum Velocity Error:  0.10E-04 on Mesh   1 at (  76   1  20)
       Maximum Pressure Error:  0.36E-09 on Mesh   1 at (   6   1  31)
       ---------------------------------------------------------------
       Mesh    1
       Max CFL number:  0.35E-01 at (  20,   1,  24)
       Max divergence:  0.60E-12 at (  48,   1,  15)
       Min divergence: -0.62E-12 at (  16,   1,  17)
       Max VN number:   0.23E+00 at (   5,   1,  38)
       Mesh    2
       Max CFL number:  0.86E-01 at (  25,   1,  26)
       Max divergence:  0.35E-12 at (   1,   1,  30)
       Min divergence: -0.28E-12 at (  32,   1,  38)
       Max VN number:   0.23E+00 at (   1,   1,  11)
       Mesh    3
       Max CFL number:  0.23E-01 at (   1,   1,   5)
       Max divergence:  0.30E-12 at (   1,   1,  34)
       Min divergence: -0.26E-12 at (   9,   1,   2)
       Max VN number:   0.23E+00 at (   1,   1,  37)
       Mesh    4
       Max CFL number:  0.23E-01 at (   1,   1,   5)
       Max divergence:  0.17E-12 at (   1,   1,  20)
       Min divergence: -0.12E-12 at (   6,   1,  17)
       Max VN number:   0.23E+00 at (   1,   1,  40)
 
       Time Step       4   July 15, 2020  15:55:33
       Step Size:    0.395E-02 s, Total Time:       0.02 s
       Pressure Iterations:     25
       Maximum Velocity Error:  0.10E-04 on Mesh   1 at (  76   1  20)
       Maximum Pressure Error:  0.36E-09 on Mesh   1 at (  13   1  31)
       ---------------------------------------------------------------
       Mesh    1
       Max CFL number:  0.46E-01 at (  20,   1,  24)
       Max divergence:  0.75E-12 at (  51,   1,   2)
       Min divergence: -0.55E-12 at (   3,   1,   3)
       Max VN number:   0.23E+00 at (  75,   1,  21)
       Mesh    2
       Max CFL number:  0.11E+00 at (  25,   1,  26)
       Max divergence:  0.32E-12 at (   1,   1,  38)
       Min divergence: -0.29E-12 at (   9,   1,   1)
       Max VN number:   0.23E+00 at (   1,   1,  21)
       Mesh    3
       Max CFL number:  0.31E-01 at (   1,   1,   5)
       Max divergence:  0.23E-12 at (   4,   1,  18)
       Min divergence: -0.28E-12 at (   6,   1,  11)
       Max VN number:   0.23E+00 at (   1,   1,  20)
       Mesh    4
       Max CFL number:  0.31E-01 at (   1,   1,   5)
       Max divergence:  0.12E-12 at (   7,   1,   3)
       Min divergence: -0.12E-12 at (   4,   1,  34)
       Max VN number:   0.23E+00 at (   1,   1,  20)
 
       Time Step       5   July 15, 2020  15:55:33
       Step Size:    0.395E-02 s, Total Time:       0.02 s
       Pressure Iterations:     19
       Maximum Velocity Error:  0.10E-04 on Mesh   1 at (  76   1  20)
       Maximum Pressure Error:  0.33E-09 on Mesh   1 at (  53   1   6)
       ---------------------------------------------------------------
       Mesh    1
       Max CFL number:  0.57E-01 at (  20,   1,  24)
       Max divergence:  0.64E-12 at (  38,   1,   5)
       Min divergence: -0.58E-12 at (  16,   1,  10)
       Max VN number:   0.23E+00 at (  75,   1,  21)
       Mesh    2
       Max CFL number:  0.14E+00 at (  25,   1,  26)
       Max divergence:  0.37E-12 at (   2,   1,   9)
       Min divergence: -0.29E-12 at (  57,   1,  40)
       Max VN number:   0.23E+00 at (   1,   1,  31)
       Mesh    3
       Max CFL number:  0.39E-01 at (   1,   1,   5)
       Max divergence:  0.25E-12 at (  22,   1,  17)
       Min divergence: -0.26E-12 at (  19,   1,  10)
       Max VN number:   0.23E+00 at (   1,   1,  34)
       Mesh    4
       Max CFL number:  0.39E-01 at (   1,   1,   5)
       Max divergence:  0.14E-12 at (   1,   1,  32)
       Min divergence: -0.11E-12 at (   5,   1,   2)
       Max VN number:   0.23E+00 at (   1,   1,  21)
 
       Time Step       6   July 15, 2020  15:55:33
       Step Size:    0.395E-02 s, Total Time:       0.02 s
       Pressure Iterations:     13
       Maximum Velocity Error:  0.10E-04 on Mesh   1 at (  76   1  20)
       Maximum Pressure Error:  0.30E-09 on Mesh   1 at (  17   1  21)
       ---------------------------------------------------------------
       Mesh    1
       Max CFL number:  0.67E-01 at (  20,   1,  24)
       Max divergence:  0.49E-12 at (  12,   1,   1)
       Min divergence: -0.55E-12 at (  39,   1,  18)
       Max VN number:   0.23E+00 at (  75,   1,  21)
       Mesh    2
       Max CFL number:  0.16E+00 at (  25,   1,  26)
       Max divergence:  0.29E-12 at (   1,   1,  25)
       Min divergence: -0.29E-12 at (  68,   1,  11)
       Max VN number:   0.23E+00 at (   1,   1,  31)
       Mesh    3
       Max CFL number:  0.47E-01 at (   1,   1,   5)
       Max divergence:  0.34E-12 at (   1,   1,  31)
       Min divergence: -0.29E-12 at (  10,   1,   2)
       Max VN number:   0.23E+00 at (   1,   1,  21)
       Mesh    4
       Max CFL number:  0.47E-01 at (   1,   1,   5)
       Max divergence:  0.13E-12 at (   1,   1,  28)
       Min divergence: -0.16E-12 at (   1,   1,  21)
       Max VN number:   0.23E+00 at (   1,   1,  21)
 
       Time Step       7   July 15, 2020  15:55:33
       Step Size:    0.395E-02 s, Total Time:       0.03 s
       Pressure Iterations:     12
       Maximum Velocity Error:  0.10E-04 on Mesh   1 at (  76   1  20)
       Maximum Pressure Error:  0.40E-09 on Mesh   1 at (  43   1  27)
       ---------------------------------------------------------------
       Mesh    1
       Max CFL number:  0.77E-01 at (  20,   1,  24)
       Max divergence:  0.48E-12 at (  51,   1,   9)
       Min divergence: -0.51E-12 at (  23,   1,  23)
       Max VN number:   0.23E+00 at (  75,   1,  20)
       Mesh    2
       Max CFL number:  0.19E+00 at (  25,   1,  26)
       Max divergence:  0.28E-12 at (  75,   1,  29)
       Min divergence: -0.27E-12 at (   5,   1,  29)
       Max VN number:   0.23E+00 at (   1,   1,  31)
       Mesh    3
       Max CFL number:  0.55E-01 at (   1,   1,   5)
       Max divergence:  0.33E-12 at (   1,   1,  12)
       Min divergence: -0.30E-12 at (   5,   1,  22)
       Max VN number:   0.23E+00 at (   1,   1,  21)
       Mesh    4
       Max CFL number:  0.55E-01 at (   1,   1,   5)
       Max divergence:  0.13E-12 at (   2,   1,  31)
       Min divergence: -0.17E-12 at (   1,   1,  14)
       Max VN number:   0.23E+00 at (   1,   1,   6)
 
       Time Step       8   July 15, 2020  15:55:33
       Step Size:    0.395E-02 s, Total Time:       0.03 s
       Pressure Iterations:     10
       Maximum Velocity Error:  0.10E-04 on Mesh   1 at (  76   1  20)
       Maximum Pressure Error:  0.28E-09 on Mesh   1 at (  28   1  30)
       ---------------------------------------------------------------
       Mesh    1
       Max CFL number:  0.88E-01 at (  20,   1,  24)
       Max divergence:  0.61E-12 at (  33,   1,  30)
       Min divergence: -0.56E-12 at (  33,   1,  39)
       Max VN number:   0.23E+00 at (  75,   1,  31)
       Mesh    2
       Max CFL number:  0.21E+00 at (  25,   1,  26)
       Max divergence:  0.43E-12 at (  75,   1,   4)
       Min divergence: -0.34E-12 at (  11,   1,   9)
       Max VN number:   0.23E+00 at (   1,   1,  31)
       Mesh    3
       Max CFL number:  0.62E-01 at (   1,   1,   5)
       Max divergence:  0.26E-12 at (  20,   1,  25)
       Min divergence: -0.29E-12 at (   4,   1,  19)
       Max VN number:   0.23E+00 at (   1,   1,  21)
       Mesh    4
       Max CFL number:  0.62E-01 at (   1,   1,   5)
       Max divergence:  0.18E-12 at (   1,   1,   5)
       Min divergence: -0.15E-12 at (   4,   1,  17)
       Max VN number:   0.23E+00 at (   1,   1,   7)
 
       Time Step       9   July 15, 2020  15:55:33
       Step Size:    0.395E-02 s, Total Time:       0.04 s
       Pressure Iterations:      9
       Maximum Velocity Error:  0.99E-05 on Mesh   1 at (  76   1  20)
       Maximum Pressure Error:  0.34E-09 on Mesh   1 at (  49   1  29)
       ---------------------------------------------------------------
       Mesh    1
       Max CFL number:  0.98E-01 at (  20,   1,  24)
       Max divergence:  0.52E-12 at (  46,   1,  28)
       Min divergence: -0.65E-12 at (   7,   1,   4)
       Max VN number:   0.23E+00 at (  75,   1,  30)
       Mesh    2
       Max CFL number:  0.23E+00 at (  25,   1,  26)
       Max divergence:  0.33E-12 at (   1,   1,   7)
       Min divergence: -0.27E-12 at (  22,   1,  10)
       Max VN number:   0.23E+00 at (   1,   1,  31)
       Mesh    3
       Max CFL number:  0.70E-01 at (   1,   1,   5)
       Max divergence:  0.32E-12 at (   1,   1,  24)
       Min divergence: -0.23E-12 at (  16,   1,   3)
       Max VN number:   0.23E+00 at (   1,   1,  21)
       Mesh    4
       Max CFL number:  0.70E-01 at (   1,   1,   5)
       Max divergence:  0.13E-12 at (   1,   1,  28)
       Min divergence: -0.13E-12 at (   3,   1,   9)
       Max VN number:   0.23E+00 at (   1,   1,  21)
 
       Time Step      10   July 15, 2020  15:55:33
       Step Size:    0.395E-02 s, Total Time:       0.04 s
       Pressure Iterations:      8
       Maximum Velocity Error:  0.10E-04 on Mesh   1 at (  76   1  20)
       Maximum Pressure Error:  0.34E-09 on Mesh   1 at (  11   1   7)
       ---------------------------------------------------------------
       Mesh    1
       Max CFL number:  0.11E+00 at (  20,   1,  24)
       Max divergence:  0.61E-12 at (  34,   1,  18)
       Min divergence: -0.64E-12 at (  53,   1,  14)
       Max VN number:   0.23E+00 at (  75,   1,  30)
       Mesh    2
       Max CFL number:  0.25E+00 at (  25,   1,  26)
       Max divergence:  0.34E-12 at (  75,   1,  19)
       Min divergence: -0.29E-12 at (  60,   1,  17)
       Max VN number:   0.23E+00 at (   1,   1,  31)
       Mesh    3
       Max CFL number:  0.78E-01 at (   1,   1,   5)
       Max divergence:  0.25E-12 at (   1,   1,  24)
       Min divergence: -0.20E-12 at (   5,   1,   7)
       Max VN number:   0.23E+00 at (   1,   1,  20)
       Mesh    4
       Max CFL number:  0.78E-01 at (   1,   1,   5)
       Max divergence:  0.14E-12 at (   1,   1,   8)
       Min divergence: -0.12E-12 at (   4,   1,  16)
       Max VN number:   0.23E+00 at (   1,   1,  30)
 
       Time Step      20   July 15, 2020  15:55:34
       Step Size:    0.395E-02 s, Total Time:       0.08 s
       Pressure Iterations:     24
       Maximum Velocity Error:  0.10E-04 on Mesh   1 at (  76   1  20)
       Maximum Pressure Error:  0.31E-09 on Mesh   1 at (  28   1  11)
       ---------------------------------------------------------------
       Mesh    1
       Max CFL number:  0.22E+00 at (  20,   1,  23)
       Max divergence:  0.54E-12 at (   4,   1,  13)
       Min divergence: -0.60E-12 at (  21,   1,  19)
       Max VN number:   0.23E+00 at (  75,   1,  31)
       Mesh    2
       Max CFL number:  0.49E+00 at (  25,   1,  27)
       Max divergence:  0.40E-12 at (   1,   1,  37)
       Min divergence: -0.27E-12 at (   6,   1,  19)
       Max VN number:   0.23E+00 at (   1,   1,  31)
       Mesh    3
       Max CFL number:  0.16E+00 at (   1,   1,   5)
       Max divergence:  0.32E-12 at (  16,   1,  39)
       Min divergence: -0.24E-12 at (  19,   1,  35)
       Max VN number:   0.23E+00 at (   1,   1,  21)
       Mesh    4
       Max CFL number:  0.16E+00 at (   1,   1,   5)
       Max divergence:  0.15E-12 at (   3,   1,  10)
       Min divergence: -0.17E-12 at (   2,   1,  10)
       Max VN number:   0.23E+00 at (   1,   1,  30)
 
       Time Step      30   July 15, 2020  15:55:35
       Step Size:    0.263E-02 s, Total Time:       0.11 s
       Pressure Iterations:     18
       Maximum Velocity Error:  0.10E-04 on Mesh   1 at (  76   1  20)
       Maximum Pressure Error:  0.37E-09 on Mesh   1 at (   4   1  30)
       ---------------------------------------------------------------
       Mesh    1
       Max CFL number:  0.21E+00 at (  20,   1,  23)
       Max divergence:  0.39E-12 at (   5,   1,  11)
       Min divergence: -0.38E-12 at (   4,   1,  11)
       Max VN number:   0.15E+00 at (  75,   1,  31)
       Mesh    2
       Max CFL number:  0.47E+00 at (  25,   1,  27)
       Max divergence:  0.26E-12 at (  75,   1,  20)
       Min divergence: -0.22E-12 at (  73,   1,  39)
       Max VN number:   0.15E+00 at (   2,   1,  31)
       Mesh    3
       Max CFL number:  0.14E+00 at (   1,   1,   5)
       Max divergence:  0.16E-12 at (  15,   1,  22)
       Min divergence: -0.18E-12 at (   1,   1,  17)
       Max VN number:   0.15E+00 at (   2,   1,  31)
       Mesh    4
       Max CFL number:  0.14E+00 at (   1,   1,   5)
       Max divergence:  0.91E-13 at (   1,   1,   4)
       Min divergence: -0.81E-13 at (   1,   1,   3)
       Max VN number:   0.15E+00 at (   1,   1,  20)
 
       Time Step      40   July 15, 2020  15:55:35
       Step Size:    0.205E-02 s, Total Time:       0.13 s
       Pressure Iterations:     32
       Maximum Velocity Error:  0.10E-04 on Mesh   1 at (  76   1  20)
       Maximum Pressure Error:  0.30E-09 on Mesh   1 at (  15   1  35)
       ---------------------------------------------------------------
       Mesh    1
       Max CFL number:  0.20E+00 at (  20,   1,  23)
       Max divergence:  0.27E-12 at (  31,   1,  27)
       Min divergence: -0.28E-12 at (  27,   1,  19)
       Max VN number:   0.12E+00 at (  75,   1,  11)
       Mesh    2
       Max CFL number:  0.46E+00 at (  25,   1,  27)
       Max divergence:  0.23E-12 at (   1,   1,  37)
       Min divergence: -0.17E-12 at (  12,   1,   2)
       Max VN number:   0.12E+00 at (   4,   1,  31)
       Mesh    3
       Max CFL number:  0.14E+00 at (   1,   1,   5)
       Max divergence:  0.20E-12 at (   1,   1,   5)
       Min divergence: -0.14E-12 at (   1,   1,   2)
       Max VN number:   0.12E+00 at (   3,   1,  30)
       Mesh    4
       Max CFL number:  0.14E+00 at (   1,   1,   5)
       Max divergence:  0.94E-13 at (   1,   1,  23)
       Min divergence: -0.91E-13 at (   4,   1,  37)
       Max VN number:   0.12E+00 at (   2,   1,  20)
 
       Time Step      50   July 15, 2020  15:55:36
       Step Size:    0.183E-02 s, Total Time:       0.15 s
       Pressure Iterations:     19
       Maximum Velocity Error:  0.10E-04 on Mesh   1 at (  76   1  20)
       Maximum Pressure Error:  0.40E-09 on Mesh   1 at (  32   1   3)
       ---------------------------------------------------------------
       Mesh    1
       Max CFL number:  0.21E+00 at (  20,   1,  23)
       Max divergence:  0.25E-12 at (  20,   1,  22)
       Min divergence: -0.26E-12 at (  49,   1,  13)
       Max VN number:   0.11E+00 at (  75,   1,  31)
       Mesh    2
       Max CFL number:  0.47E+00 at (  25,   1,  27)
       Max divergence:  0.21E-12 at (   1,   1,  13)
       Min divergence: -0.16E-12 at (  68,   1,   3)
       Max VN number:   0.11E+00 at (   4,   1,  31)
       Mesh    3
       Max CFL number:  0.14E+00 at (   1,   1,   5)
       Max divergence:  0.14E-12 at (   6,   1,   9)
       Min divergence: -0.14E-12 at (   5,   1,  33)
       Max VN number:   0.11E+00 at (   4,   1,  31)
       Mesh    4
       Max CFL number:  0.14E+00 at (   1,   1,   5)
       Max divergence:  0.76E-13 at (   5,   1,   5)
       Min divergence: -0.95E-13 at (   6,   1,   5)
       Max VN number:   0.11E+00 at (   2,   1,  20)
 
       Time Step      60   July 15, 2020  15:55:36
       Step Size:    0.164E-02 s, Total Time:       0.17 s
       Pressure Iterations:     16
       Maximum Velocity Error:  0.10E-04 on Mesh   1 at (  76   1  20)
       Maximum Pressure Error:  0.31E-09 on Mesh   1 at (  55   1  18)
       ---------------------------------------------------------------
       Mesh    1
       Max CFL number:  0.21E+00 at (  20,   1,  23)
       Max divergence:  0.23E-12 at (  24,   1,  17)
       Min divergence: -0.23E-12 at (  25,   1,  17)
       Max VN number:   0.95E-01 at (  75,   1,  21)
       Mesh    2
       Max CFL number:  0.46E+00 at (  25,   1,  27)
       Max divergence:  0.18E-12 at (   1,   1,  38)
       Min divergence: -0.14E-12 at (  59,   1,  10)
       Max VN number:   0.95E-01 at (   6,   1,  11)
       Mesh    3
       Max CFL number:  0.14E+00 at (   1,   1,   5)
       Max divergence:  0.15E-12 at (  20,   1,   3)
       Min divergence: -0.14E-12 at (  26,   1,   1)
       Max VN number:   0.95E-01 at (   5,   1,  31)
       Mesh    4
       Max CFL number:  0.14E+00 at (   1,   1,   5)
       Max divergence:  0.69E-13 at (   1,   1,   9)
       Min divergence: -0.80E-13 at (   7,   1,   7)
       Max VN number:   0.95E-01 at (   2,   1,  20)
 
       Time Step      70   July 15, 2020  15:55:37
       Step Size:    0.147E-02 s, Total Time:       0.19 s
       Pressure Iterations:     20
       Maximum Velocity Error:  0.10E-04 on Mesh   1 at (  76   1  20)
       Maximum Pressure Error:  0.36E-09 on Mesh   1 at (  30   1  27)
       ---------------------------------------------------------------
       Mesh    1
       Max CFL number:  0.20E+00 at (  20,   1,  25)
       Max divergence:  0.19E-12 at (  58,   1,  17)
       Min divergence: -0.22E-12 at (   6,   1,   2)
       Max VN number:   0.85E-01 at (  40,   1,   9)
       Mesh    2
       Max CFL number:  0.45E+00 at (  25,   1,  27)
       Max divergence:  0.14E-12 at (   1,   1,  39)
       Min divergence: -0.13E-12 at (   6,   1,  23)
       Max VN number:   0.85E-01 at (   7,   1,  11)
       Mesh    3
       Max CFL number:  0.14E+00 at (   1,   1,   5)
       Max divergence:  0.17E-12 at (   1,   1,   2)
       Min divergence: -0.11E-12 at (  13,   1,  18)
       Max VN number:   0.85E-01 at (   6,   1,  21)
       Mesh    4
       Max CFL number:  0.14E+00 at (   1,   1,   5)
       Max divergence:  0.78E-13 at (   1,   1,  35)
       Min divergence: -0.65E-13 at (   6,   1,  34)
       Max VN number:   0.85E-01 at (   3,   1,  20)
 
       Time Step      80   July 15, 2020  15:55:37
       Step Size:    0.147E-02 s, Total Time:       0.20 s
       Pressure Iterations:     18
       Maximum Velocity Error:  0.10E-04 on Mesh   1 at (  76   1  20)
       Maximum Pressure Error:  0.32E-09 on Mesh   1 at (  39   1  20)
       ---------------------------------------------------------------
       Mesh    1
       Max CFL number:  0.23E+00 at (  20,   1,  25)
       Max divergence:  0.22E-12 at (  60,   1,  11)
       Min divergence: -0.19E-12 at (  48,   1,   2)
       Max VN number:   0.85E-01 at (  75,   1,  16)
       Mesh    2
       Max CFL number:  0.48E+00 at (  25,   1,  27)
       Max divergence:  0.23E-12 at (   1,   1,  20)
       Min divergence: -0.14E-12 at (  11,   1,  20)
       Max VN number:   0.85E-01 at (   9,   1,  31)
       Mesh    3
       Max CFL number:  0.15E+00 at (   1,   1,   5)
       Max divergence:  0.14E-12 at (   1,   1,   6)
       Min divergence: -0.13E-12 at (   3,   1,  10)
       Max VN number:   0.85E-01 at (   7,   1,  31)
       Mesh    4
       Max CFL number:  0.15E+00 at (   1,   1,   5)
       Max divergence:  0.78E-13 at (   1,   1,  19)
       Min divergence: -0.71E-13 at (   3,   1,  17)
       Max VN number:   0.85E-01 at (   3,   1,  20)
 
       Time Step      90   July 15, 2020  15:55:39
       Step Size:    0.132E-02 s, Total Time:       0.21 s
       Pressure Iterations:     16
       Maximum Velocity Error:  0.10E-04 on Mesh   1 at (  76   1  20)
       Maximum Pressure Error:  0.29E-09 on Mesh   1 at (  22   1   6)
       ---------------------------------------------------------------
       Mesh    1
       Max CFL number:  0.22E+00 at (  20,   1,  25)
       Max divergence:  0.18E-12 at (  52,   1,  16)
       Min divergence: -0.19E-12 at (  60,   1,  10)
       Max VN number:   0.77E-01 at (  49,   1,  27)
       Mesh    2
       Max CFL number:  0.46E+00 at (  25,   1,  27)
       Max divergence:  0.17E-12 at (  26,   1,  27)
       Min divergence: -0.13E-12 at (  13,   1,   9)
       Max VN number:   0.77E-01 at (   9,   1,  21)
       Mesh    3
       Max CFL number:  0.14E+00 at (   1,   1,   5)
       Max divergence:  0.11E-12 at (   1,   1,   8)
       Min divergence: -0.96E-13 at (   8,   1,   7)
       Max VN number:   0.77E-01 at (   7,   1,  10)
       Mesh    4
       Max CFL number:  0.14E+00 at (   1,   1,   5)
       Max divergence:  0.78E-13 at (   2,   1,   9)
       Min divergence: -0.69E-13 at (   9,   1,  21)
       Max VN number:   0.77E-01 at (   3,   1,  30)
 
       Time Step     100   July 15, 2020  15:55:40
       Step Size:    0.132E-02 s, Total Time:       0.23 s
       Pressure Iterations:     17
       Maximum Velocity Error:  0.10E-04 on Mesh   1 at (  76   1  20)
       Maximum Pressure Error:  0.38E-09 on Mesh   1 at (  39   1  18)
       ---------------------------------------------------------------
       Mesh    1
       Max CFL number:  0.24E+00 at (  20,   1,  25)
       Max divergence:  0.17E-12 at (  31,   1,   7)
       Min divergence: -0.20E-12 at (  21,   1,   4)
       Max VN number:   0.77E-01 at (  59,   1,  32)
       Mesh    2
       Max CFL number:  0.48E+00 at (  25,   1,  27)
       Max divergence:  0.14E-12 at (   7,   1,  18)
       Min divergence: -0.12E-12 at (  23,   1,  11)
       Max VN number:   0.77E-01 at (   9,   1,  21)
       Mesh    3
       Max CFL number:  0.15E+00 at (   1,   1,   5)
       Max divergence:  0.94E-13 at (  23,   1,  10)
       Min divergence: -0.11E-12 at (  26,   1,  26)
       Max VN number:   0.77E-01 at (   7,   1,  10)
       Mesh    4
       Max CFL number:  0.15E+00 at (   1,   1,   5)
       Max divergence:  0.87E-13 at (   1,   1,  11)
       Min divergence: -0.73E-13 at (   2,   1,  30)
       Max VN number:   0.77E-01 at (   4,   1,  21)
 
       Time Step     200   July 15, 2020  15:55:51
       Step Size:    0.960E-03 s, Total Time:       0.34 s
       Pressure Iterations:      3
       Maximum Velocity Error:  0.99E-05 on Mesh   1 at (  76   1   1)
       Maximum Pressure Error:  0.33E-09 on Mesh   1 at (  15   1  18)
       ---------------------------------------------------------------
       Mesh    1
       Max CFL number:  0.27E+00 at (  20,   1,  25)
       Max divergence:  0.15E-12 at (  64,   1,   5)
       Min divergence: -0.12E-12 at (  63,   1,  39)
       Max VN number:   0.56E-01 at (  54,   1,  11)
       Mesh    2
       Max CFL number:  0.47E+00 at (  25,   1,  27)
       Max divergence:  0.23E-12 at (  26,   1,  14)
       Min divergence: -0.21E-12 at (  25,   1,  28)
       Max VN number:   0.56E-01 at (  13,   1,  20)
       Mesh    3
       Max CFL number:  0.16E+00 at (   1,   1,   5)
       Max divergence:  0.12E-12 at (   1,   1,  32)
       Min divergence: -0.11E-12 at (   5,   1,  33)
       Max VN number:   0.56E-01 at (   9,   1,  31)
       Mesh    4
       Max CFL number:  0.16E+00 at (   1,   1,   6)
       Max divergence:  0.81E-13 at (   5,   1,  13)
       Min divergence: -0.96E-13 at (   3,   1,  30)
       Max VN number:   0.56E-01 at (   4,   1,  21)
 
       Time Step     300   July 15, 2020  15:55:59
       Step Size:    0.776E-03 s, Total Time:       0.43 s
       Pressure Iterations:      5
       Maximum Velocity Error:  0.10E-04 on Mesh   1 at (  76   1   1)
       Maximum Pressure Error:  0.47E-09 on Mesh   2 at (  27   1  15)
       ---------------------------------------------------------------
       Mesh    1
       Max CFL number:  0.28E+00 at (  20,   1,  25)
       Max divergence:  0.11E-12 at (  75,   1,  36)
       Min divergence: -0.12E-12 at (   3,   1,   2)
       Max VN number:   0.45E-01 at (  75,   1,  20)
       Mesh    2
       Max CFL number:  0.45E+00 at (  25,   1,  27)
       Max divergence:  0.17E-12 at (  21,   1,  12)
       Min divergence: -0.17E-12 at (  13,   1,  34)
       Max VN number:   0.45E-01 at (  19,   1,  10)
       Mesh    3
       Max CFL number:  0.16E+00 at (   1,   1,   6)
       Max divergence:  0.12E-12 at (  22,   1,  11)
       Min divergence: -0.11E-12 at (   6,   1,  33)
       Max VN number:   0.45E-01 at (   9,   1,  32)
       Mesh    4
       Max CFL number:  0.16E+00 at (   1,   1,   6)
       Max divergence:  0.84E-13 at (   5,   1,  34)
       Min divergence: -0.98E-13 at (   1,   1,  21)
       Max VN number:   0.45E-01 at (   4,   1,  21)
 
       Time Step     400   July 15, 2020  15:56:07
       Step Size:    0.698E-03 s, Total Time:       0.50 s
       Pressure Iterations:      8
       Maximum Velocity Error:  0.10E-04 on Mesh   1 at (  76   1  40)
       Maximum Pressure Error:  0.66E-09 on Mesh   2 at (  27   1  15)
       ---------------------------------------------------------------
       Mesh    1
       Max CFL number:  0.29E+00 at (  20,   1,  25)
       Max divergence:  0.11E-12 at (  42,   1,  33)
       Min divergence: -0.10E-12 at (  12,   1,  36)
       Max VN number:   0.41E-01 at (  75,   1,  40)
       Mesh    2
       Max CFL number:  0.46E+00 at (  25,   1,  27)
       Max divergence:  0.21E-12 at (  26,   1,  14)
       Min divergence: -0.21E-12 at (  27,   1,  14)
       Max VN number:   0.41E-01 at (  21,   1,  32)
       Mesh    3
       Max CFL number:  0.17E+00 at (   1,   1,   5)
       Max divergence:  0.12E-12 at (  13,   1,  23)
       Min divergence: -0.14E-12 at (   6,   1,  33)
       Max VN number:   0.41E-01 at (   9,   1,  32)
       Mesh    4
       Max CFL number:  0.16E+00 at (   1,   1,   6)
       Max divergence:  0.11E-12 at (   2,   1,  21)
       Min divergence: -0.11E-12 at (   3,   1,  31)
       Max VN number:   0.41E-01 at (   4,   1,  21)
 
       Time Step     500   July 15, 2020  15:56:13
       Step Size:    0.628E-03 s, Total Time:       0.57 s
       Pressure Iterations:      3
       Maximum Velocity Error:  0.99E-05 on Mesh   3 at (  76   1   1)
       Maximum Pressure Error:  0.94E-09 on Mesh   2 at (  27   1  15)
       ---------------------------------------------------------------
       Mesh    1
       Max CFL number:  0.30E+00 at (  20,   1,  25)
       Max divergence:  0.11E-12 at (  71,   1,  21)
       Min divergence: -0.11E-12 at (  25,   1,   9)
       Max VN number:   0.36E-01 at (  50,   1,  39)
       Mesh    2
       Max CFL number:  0.46E+00 at (  25,   1,  14)
       Max divergence:  0.17E-12 at (  27,   1,  12)
       Min divergence: -0.23E-12 at (  27,   1,  27)
       Max VN number:   0.36E-01 at (  23,   1,  32)
       Mesh    3
       Max CFL number:  0.17E+00 at (   1,   1,   6)
       Max divergence:  0.18E-12 at (  60,   1,  11)
       Min divergence: -0.19E-12 at (   4,   1,  16)
       Max VN number:   0.36E-01 at (   9,   1,  32)
       Mesh    4
       Max CFL number:  0.16E+00 at (   1,   1,   6)
       Max divergence:  0.13E-12 at (   3,   1,  10)
       Min divergence: -0.14E-12 at (   9,   1,   9)
       Max VN number:   0.36E-01 at (   4,   1,  21)
 
       Time Step     600   July 15, 2020  15:56:17
       Step Size:    0.628E-03 s, Total Time:       0.63 s
       Pressure Iterations:      5
       Maximum Velocity Error:  0.10E-04 on Mesh   1 at (  76   1  40)
       Maximum Pressure Error:  0.10E-08 on Mesh   2 at (  27   1  15)
       ---------------------------------------------------------------
       Mesh    1
       Max CFL number:  0.32E+00 at (  20,   1,  25)
       Max divergence:  0.11E-12 at (   5,   1,   2)
       Min divergence: -0.11E-12 at (  20,   1,  25)
       Max VN number:   0.36E-01 at (  50,   1,  39)
       Mesh    2
       Max CFL number:  0.50E+00 at (  25,   1,  14)
       Max divergence:  0.21E-12 at (  30,   1,  34)
       Min divergence: -0.34E-12 at (  27,   1,  27)
       Max VN number:   0.36E-01 at (  21,   1,  35)
       Mesh    3
       Max CFL number:  0.20E+00 at (   1,   1,   7)
       Max divergence:  0.17E-12 at (   6,   1,  11)
       Min divergence: -0.18E-12 at (   5,   1,  15)
       Max VN number:   0.36E-01 at (   9,   1,  32)
       Mesh    4
       Max CFL number:  0.18E+00 at (   1,   1,   5)
       Max divergence:  0.15E-12 at (   3,   1,  10)
       Min divergence: -0.16E-12 at (   3,   1,  30)
       Max VN number:   0.36E-01 at (   4,   1,  21)
 
       Time Step     700   July 15, 2020  15:56:21
       Step Size:    0.565E-03 s, Total Time:       0.69 s
       Pressure Iterations:      4
       Maximum Velocity Error:  0.97E-05 on Mesh   2 at (  76   1  21)
       Maximum Pressure Error:  0.13E-08 on Mesh   2 at (  27   1  15)
       ---------------------------------------------------------------
       Mesh    1
       Max CFL number:  0.31E+00 at (  20,   1,  25)
       Max divergence:  0.12E-12 at (  21,   1,  27)
       Min divergence: -0.99E-13 at (  13,   1,  38)
       Max VN number:   0.33E-01 at (  50,   1,  39)
       Mesh    2
       Max CFL number:  0.48E+00 at (  25,   1,  14)
       Max divergence:  0.21E-12 at (  26,   1,  27)
       Min divergence: -0.37E-12 at (  27,   1,  27)
       Max VN number:   0.33E-01 at (  21,   1,  35)
       Mesh    3
       Max CFL number:  0.20E+00 at (   1,   1,   7)
       Max divergence:  0.17E-12 at (  61,   1,  38)
       Min divergence: -0.19E-12 at (  28,   1,  32)
       Max VN number:   0.33E-01 at (   9,   1,  32)
       Mesh    4
       Max CFL number:  0.17E+00 at (   1,   1,   8)
       Max divergence:  0.15E-12 at (   5,   1,  23)
       Min divergence: -0.18E-12 at (   3,   1,  30)
       Max VN number:   0.33E-01 at (   4,   1,  21)
 
       Time Step     800   July 15, 2020  15:56:25
       Step Size:    0.508E-03 s, Total Time:       0.75 s
       Pressure Iterations:      7
       Maximum Velocity Error:  0.84E-05 on Mesh   2 at (  76   1  21)
       Maximum Pressure Error:  0.15E-08 on Mesh   2 at (  27   1  27)
       ---------------------------------------------------------------
       Mesh    1
       Max CFL number:  0.30E+00 at (  20,   1,  25)
       Max divergence:  0.10E-12 at (   6,   1,   7)
       Min divergence: -0.95E-13 at (  66,   1,  36)
       Max VN number:   0.30E-01 at (  50,   1,  39)
       Mesh    2
       Max CFL number:  0.45E+00 at (  25,   1,  14)
       Max divergence:  0.28E-12 at (  34,   1,  33)
       Min divergence: -0.28E-12 at (  27,   1,  27)
       Max VN number:   0.30E-01 at (  22,   1,  34)
       Mesh    3
       Max CFL number:  0.22E+00 at (   1,   1,   9)
       Max divergence:  0.18E-12 at (   7,   1,  33)
       Min divergence: -0.22E-12 at (   5,   1,  11)
       Max VN number:   0.30E-01 at (   9,   1,  32)
       Mesh    4
       Max CFL number:  0.16E+00 at (   1,   1,  14)
       Max divergence:  0.16E-12 at (   3,   1,  10)
       Min divergence: -0.17E-12 at (   3,   1,  30)
       Max VN number:   0.30E-01 at (   4,   1,  21)
 
       Time Step     900   July 15, 2020  15:56:29
       Step Size:    0.508E-03 s, Total Time:       0.80 s
       Pressure Iterations:     10
       Maximum Velocity Error:  0.99E-05 on Mesh   2 at (  76   1  21)
       Maximum Pressure Error:  0.17E-08 on Mesh   2 at (  27   1  15)
       ---------------------------------------------------------------
       Mesh    1
       Max CFL number:  0.31E+00 at (  20,   1,  25)
       Max divergence:  0.10E-12 at (  71,   1,   7)
       Min divergence: -0.10E-12 at (  67,   1,  29)
       Max VN number:   0.30E-01 at (  50,   1,  39)
       Mesh    2
       Max CFL number:  0.47E+00 at (  25,   1,  14)
       Max divergence:  0.28E-12 at (  26,   1,  27)
       Min divergence: -0.43E-12 at (  27,   1,  27)
       Max VN number:   0.30E-01 at (  22,   1,  34)
       Mesh    3
       Max CFL number:  0.27E+00 at (   1,   1,  12)
       Max divergence:  0.19E-12 at (   7,   1,  33)
       Min divergence: -0.19E-12 at (  30,   1,  25)
       Max VN number:   0.30E-01 at (   9,   1,  32)
       Mesh    4
       Max CFL number:  0.17E+00 at (   1,   1,  15)
       Max divergence:  0.16E-12 at (   5,   1,  23)
       Min divergence: -0.19E-12 at (   1,   1,   7)
       Max VN number:   0.30E-01 at (   4,   1,  21)
 
       Time Step    1000   July 15, 2020  15:56:33
       Step Size:    0.508E-03 s, Total Time:       0.85 s
       Pressure Iterations:     15
       Maximum Velocity Error:  0.94E-05 on Mesh   2 at (  76   1  21)
       Maximum Pressure Error:  0.19E-08 on Mesh   2 at (  27   1  15)
       ---------------------------------------------------------------
       Mesh    1
       Max CFL number:  0.33E+00 at (  20,   1,  25)
       Max divergence:  0.11E-12 at (  40,   1,   2)
       Min divergence: -0.11E-12 at (  58,   1,  16)
       Max VN number:   0.30E-01 at (  50,   1,  39)
       Mesh    2
       Max CFL number:  0.49E+00 at (  25,   1,  14)
       Max divergence:  0.22E-12 at (  72,   1,   9)
       Min divergence: -0.37E-12 at (  27,   1,  27)
       Max VN number:   0.30E-01 at (  22,   1,  34)
       Mesh    3
       Max CFL number:  0.33E+00 at (   1,   1,  11)
       Max divergence:  0.21E-12 at (   7,   1,  11)
       Min divergence: -0.22E-12 at (   7,   1,  32)
       Max VN number:   0.30E-01 at (  10,   1,  32)
       Mesh    4
       Max CFL number:  0.18E+00 at (   1,   1,  15)
       Max divergence:  0.19E-12 at (   3,   1,  10)
       Min divergence: -0.20E-12 at (   3,   1,  30)
       Max VN number:   0.30E-01 at (   4,   1,  21)
 
       Time Step    1100   July 15, 2020  15:56:38
       Step Size:    0.457E-03 s, Total Time:       0.89 s
       Pressure Iterations:     14
       Maximum Velocity Error:  0.95E-05 on Mesh   2 at (  76   1  21)
       Maximum Pressure Error:  0.21E-08 on Mesh   2 at (  27   1  15)
       ---------------------------------------------------------------
       Mesh    1
       Max CFL number:  0.31E+00 at (  20,   1,  25)
       Max divergence:  0.11E-12 at (  29,   1,  16)
       Min divergence: -0.12E-12 at (  19,   1,  21)
       Max VN number:   0.27E-01 at (  50,   1,  39)
       Mesh    2
       Max CFL number:  0.46E+00 at (  25,   1,  14)
       Max divergence:  0.25E-12 at (  28,   1,  12)
       Min divergence: -0.31E-12 at (  28,   1,  13)
       Max VN number:   0.27E-01 at (  22,   1,  30)
       Mesh    3
       Max CFL number:  0.34E+00 at (   1,   1,  10)
       Max divergence:  0.28E-12 at (  11,   1,  32)
       Min divergence: -0.29E-12 at (   7,   1,   9)
       Max VN number:   0.27E-01 at (  12,   1,  31)
       Mesh    4
       Max CFL number:  0.17E+00 at (   1,   1,  15)
       Max divergence:  0.17E-12 at (   3,   1,  11)
       Min divergence: -0.17E-12 at (   3,   1,  19)
       Max VN number:   0.27E-01 at (   4,   1,  21)
 
       Time Step    1200   July 15, 2020  15:56:42
       Step Size:    0.457E-03 s, Total Time:       0.94 s
       Pressure Iterations:     12
       Maximum Velocity Error:  0.98E-05 on Mesh   2 at (  76   1  23)
       Maximum Pressure Error:  0.22E-08 on Mesh   2 at (  27   1  15)
       ---------------------------------------------------------------
       Mesh    1
       Max CFL number:  0.32E+00 at (  20,   1,  25)
       Max divergence:  0.99E-13 at (  21,   1,  27)
       Min divergence: -0.95E-13 at (  24,   1,  34)
       Max VN number:   0.27E-01 at (  50,   1,  39)
       Mesh    2
       Max CFL number:  0.48E+00 at (  25,   1,  14)
       Max divergence:  0.28E-12 at (  26,   1,  27)
       Min divergence: -0.38E-12 at (  28,   1,  13)
       Max VN number:   0.27E-01 at (  22,   1,  30)
       Mesh    3
       Max CFL number:  0.35E+00 at (   1,   1,   9)
       Max divergence:  0.28E-12 at (  10,   1,   9)
       Min divergence: -0.29E-12 at (   9,   1,   8)
       Max VN number:   0.27E-01 at (  13,   1,  31)
       Mesh    4
       Max CFL number:  0.17E+00 at (   1,   1,  15)
       Max divergence:  0.16E-12 at (   5,   1,  34)
       Min divergence: -0.22E-12 at (   1,   1,  21)
       Max VN number:   0.27E-01 at (   4,   1,  21)
 
       Time Step    1300   July 15, 2020  15:56:49
       Step Size:    0.457E-03 s, Total Time:       0.99 s
       Pressure Iterations:     10
       Maximum Velocity Error:  0.97E-05 on Mesh   2 at (  76   1  16)
       Maximum Pressure Error:  0.22E-08 on Mesh   2 at (  27   1  15)
       ---------------------------------------------------------------
       Mesh    1
       Max CFL number:  0.33E+00 at (  20,   1,  25)
       Max divergence:  0.97E-13 at (  42,   1,   3)
       Min divergence: -0.11E-12 at (  20,   1,  24)
       Max VN number:   0.27E-01 at (  50,   1,  39)
       Mesh    2
       Max CFL number:  0.49E+00 at (  25,   1,  14)
       Max divergence:  0.25E-12 at (  75,   1,  10)
       Min divergence: -0.51E-12 at (  27,   1,  27)
       Max VN number:   0.27E-01 at (  22,   1,  30)
       Mesh    3
       Max CFL number:  0.37E+00 at (   1,   1,   8)
       Max divergence:  0.27E-12 at (   5,   1,   7)
       Min divergence: -0.29E-12 at (  14,   1,  11)
       Max VN number:   0.27E-01 at (   8,   1,  23)
       Mesh    4
       Max CFL number:  0.18E+00 at (   1,   1,  15)
       Max divergence:  0.18E-12 at (   2,   1,  21)
       Min divergence: -0.22E-12 at (   3,   1,  31)
       Max VN number:   0.27E-01 at (   4,   1,  21)
 
       Time Step    1400   July 15, 2020  15:56:54
       Step Size:    0.412E-03 s, Total Time:       1.03 s
       Pressure Iterations:      7
       Maximum Velocity Error:  0.97E-05 on Mesh   2 at (  76   1  14)
       Maximum Pressure Error:  0.25E-08 on Mesh   2 at (  27   1  15)
       ---------------------------------------------------------------
       Mesh    1
       Max CFL number:  0.30E+00 at (  20,   1,  25)
       Max divergence:  0.10E-12 at (  20,   1,  14)
       Min divergence: -0.11E-12 at (  19,   1,  25)
       Max VN number:   0.24E-01 at (  50,   1,  39)
       Mesh    2
       Max CFL number:  0.45E+00 at (  25,   1,  14)
       Max divergence:  0.27E-12 at (  75,   1,  10)
       Min divergence: -0.34E-12 at (  27,   1,  14)
       Max VN number:   0.24E-01 at (  22,   1,  30)
       Mesh    3
       Max CFL number:  0.35E+00 at (   5,   1,   8)
       Max divergence:  0.29E-12 at (  24,   1,  38)
       Min divergence: -0.21E-12 at (  15,   1,  32)
       Max VN number:   0.24E-01 at (   8,   1,  23)
       Mesh    4
       Max CFL number:  0.17E+00 at (   1,   1,  35)
       Max divergence:  0.20E-12 at (   3,   1,  11)
       Min divergence: -0.20E-12 at (   1,   1,   7)
       Max VN number:   0.24E-01 at (   4,   1,  21)
 
       Time Step    1500   July 15, 2020  15:56:59
       Step Size:    0.412E-03 s, Total Time:       1.07 s
       Pressure Iterations:     10
       Maximum Velocity Error:  0.86E-05 on Mesh   2 at (  76   1  27)
       Maximum Pressure Error:  0.26E-08 on Mesh   2 at (  27   1  15)
       ---------------------------------------------------------------
       Mesh    1
       Max CFL number:  0.31E+00 at (  20,   1,  25)
       Max divergence:  0.11E-12 at (  19,   1,  25)
       Min divergence: -0.11E-12 at (  15,   1,  25)
       Max VN number:   0.24E-01 at (  50,   1,  39)
       Mesh    2
       Max CFL number:  0.46E+00 at (  25,   1,  14)
       Max divergence:  0.23E-12 at (  26,   1,  14)
       Min divergence: -0.51E-12 at (  27,   1,  14)
       Max VN number:   0.24E-01 at (  22,   1,  30)
       Mesh    3
       Max CFL number:  0.36E+00 at (  15,   1,   9)
       Max divergence:  0.33E-12 at (   8,   1,   3)
       Min divergence: -0.24E-12 at (  29,   1,  32)
       Max VN number:   0.24E-01 at (   8,   1,  23)
       Mesh    4
       Max CFL number:  0.17E+00 at (   1,   1,  15)
       Max divergence:  0.19E-12 at (   3,   1,  11)
       Min divergence: -0.22E-12 at (   1,   1,  20)
       Max VN number:   0.24E-01 at (   4,   1,  21)
 
       Time Step    1600   July 15, 2020  15:57:05
       Step Size:    0.412E-03 s, Total Time:       1.11 s
       Pressure Iterations:      8
       Maximum Velocity Error:  0.99E-05 on Mesh   2 at (  76   1  40)
       Maximum Pressure Error:  0.27E-08 on Mesh   2 at (  27   1  15)
       ---------------------------------------------------------------
       Mesh    1
       Max CFL number:  0.31E+00 at (  20,   1,  25)
       Max divergence:  0.11E-12 at (  75,   1,  40)
       Min divergence: -0.11E-12 at (  20,   1,  24)
       Max VN number:   0.24E-01 at (  50,   1,  39)
       Mesh    2
       Max CFL number:  0.47E+00 at (  25,   1,  14)
       Max divergence:  0.28E-12 at (  26,   1,  14)
       Min divergence: -0.51E-12 at (  27,   1,  27)
       Max VN number:   0.24E-01 at (  22,   1,  30)
       Mesh    3
       Max CFL number:  0.38E+00 at (   8,   1,  34)
       Max divergence:  0.32E-12 at (   6,   1,   4)
       Min divergence: -0.26E-12 at (  15,   1,  34)
       Max VN number:   0.24E-01 at (   8,   1,  23)
       Mesh    4
       Max CFL number:  0.18E+00 at (   1,   1,  15)
       Max divergence:  0.18E-12 at (   6,   1,   8)
       Min divergence: -0.21E-12 at (   3,   1,   9)
       Max VN number:   0.24E-01 at (   4,   1,  21)
 
       Time Step    1700   July 15, 2020  15:57:09
       Step Size:    0.412E-03 s, Total Time:       1.15 s
       Pressure Iterations:     15
       Maximum Velocity Error:  0.89E-05 on Mesh   2 at (  76   1  15)
       Maximum Pressure Error:  0.29E-08 on Mesh   2 at (  27   1  15)
       ---------------------------------------------------------------
       Mesh    1
       Max CFL number:  0.32E+00 at (  20,   1,  25)
       Max divergence:  0.10E-12 at (  42,   1,  22)
       Min divergence: -0.11E-12 at (  20,   1,  24)
       Max VN number:   0.24E-01 at (  50,   1,  39)
       Mesh    2
       Max CFL number:  0.48E+00 at (  25,   1,  14)
       Max divergence:  0.28E-12 at (  26,   1,  31)
       Min divergence: -0.40E-12 at (  27,   1,  27)
       Max VN number:   0.24E-01 at (  22,   1,  30)
       Mesh    3
       Max CFL number:  0.41E+00 at (   1,   1,   8)
       Max divergence:  0.36E-12 at (   3,   1,   8)
       Min divergence: -0.25E-12 at (  29,   1,  33)
       Max VN number:   0.24E-01 at (   8,   1,  23)
       Mesh    4
       Max CFL number:  0.18E+00 at (  10,   1,  14)
       Max divergence:  0.22E-12 at (   3,   1,  11)
       Min divergence: -0.20E-12 at (   1,   1,   7)
       Max VN number:   0.24E-01 at (   4,   1,  21)
 
       Time Step    1800   July 15, 2020  15:57:19
       Step Size:    0.412E-03 s, Total Time:       1.20 s
       Pressure Iterations:     38
       Maximum Velocity Error:  0.99E-05 on Mesh   2 at (  76   1   1)
       Maximum Pressure Error:  0.31E-08 on Mesh   2 at (  27   1  15)
       ---------------------------------------------------------------
       Mesh    1
       Max CFL number:  0.32E+00 at (  20,   1,  25)
       Max divergence:  0.11E-12 at (  20,   1,  25)
       Min divergence: -0.11E-12 at (  19,   1,  25)
       Max VN number:   0.24E-01 at (  50,   1,  39)
       Mesh    2
       Max CFL number:  0.49E+00 at (  25,   1,  14)
       Max divergence:  0.28E-12 at (  34,   1,  33)
       Min divergence: -0.57E-12 at (  27,   1,  14)
       Max VN number:   0.24E-01 at (  22,   1,  30)
       Mesh    3
       Max CFL number:  0.46E+00 at (  13,   1,   8)
       Max divergence:  0.36E-12 at (   5,   1,   5)
       Min divergence: -0.24E-12 at (  10,   1,   4)
       Max VN number:   0.24E-01 at (   8,   1,  23)
       Mesh    4
       Max CFL number:  0.21E+00 at (   1,   1,  32)
       Max divergence:  0.21E-12 at (   3,   1,  10)
       Min divergence: -0.24E-12 at (   1,   1,   7)
       Max VN number:   0.24E-01 at (   4,   1,  21)
 
       Time Step    1900   July 15, 2020  15:57:31
       Step Size:    0.412E-03 s, Total Time:       1.24 s
       Pressure Iterations:     29
       Maximum Velocity Error:  0.99E-05 on Mesh   2 at (  76   1  40)
       Maximum Pressure Error:  0.31E-08 on Mesh   2 at (  27   1  15)
       ---------------------------------------------------------------
       Mesh    1
       Max CFL number:  0.33E+00 at (  20,   1,  25)
       Max divergence:  0.11E-12 at (  75,   1,   7)
       Min divergence: -0.12E-12 at (  19,   1,  21)
       Max VN number:   0.24E-01 at (  50,   1,  39)
       Mesh    2
       Max CFL number:  0.50E+00 at (  25,   1,  27)
       Max divergence:  0.28E-12 at (  26,   1,  27)
       Min divergence: -0.51E-12 at (  27,   1,  27)
       Max VN number:   0.24E-01 at (  22,   1,  30)
       Mesh    3
       Max CFL number:  0.50E+00 at (  26,   1,   6)
       Max divergence:  0.39E-12 at (   4,   1,  31)
       Min divergence: -0.42E-12 at (   9,   1,  21)
       Max VN number:   0.24E-01 at (  12,   1,  15)
       Mesh    4
       Max CFL number:  0.26E+00 at (   1,   1,   7)
       Max divergence:  0.23E-12 at (   3,   1,  10)
       Min divergence: -0.23E-12 at (   1,   1,   7)
       Max VN number:   0.24E-01 at (   4,   1,  21)
 
       Time Step    2000   July 15, 2020  15:57:43
       Step Size:    0.370E-03 s, Total Time:       1.27 s
       Pressure Iterations:     31
       Maximum Velocity Error:  0.96E-05 on Mesh   2 at (  76   1   1)
       Maximum Pressure Error:  0.34E-08 on Mesh   2 at (  27   1  15)
       ---------------------------------------------------------------
       Mesh    1
       Max CFL number:  0.30E+00 at (  20,   1,  25)
       Max divergence:  0.12E-12 at (  21,   1,  27)
       Min divergence: -0.11E-12 at (  20,   1,  25)
       Max VN number:   0.22E-01 at (  50,   1,  39)
       Mesh    2
       Max CFL number:  0.46E+00 at (  25,   1,  14)
       Max divergence:  0.42E-12 at (  73,   1,  19)
       Min divergence: -0.48E-12 at (  27,   1,  14)
       Max VN number:   0.22E-01 at (  22,   1,  30)
       Mesh    3
       Max CFL number:  0.49E+00 at (  42,   1,   1)
       Max divergence:  0.42E-12 at (  63,   1,  37)
       Min divergence: -0.33E-12 at (   2,   1,  19)
       Max VN number:   0.22E-01 at (  12,   1,  11)
       Mesh    4
       Max CFL number:  0.34E+00 at (   9,   1,   3)
       Max divergence:  0.28E-12 at (   6,   1,   8)
       Min divergence: -0.28E-12 at (   9,   1,   7)
       Max VN number:   0.22E-01 at (   4,   1,  21)
 
       Time Step    2100   July 15, 2020  15:57:56
       Step Size:    0.370E-03 s, Total Time:       1.31 s
       Pressure Iterations:    103
       Maximum Velocity Error:  0.10E-04 on Mesh   2 at (  76   1   1)
       Maximum Pressure Error:  0.41E-08 on Mesh   2 at (  27   1  27)
       ---------------------------------------------------------------
       Mesh    1
       Max CFL number:  0.30E+00 at (  20,   1,  25)
       Max divergence:  0.10E-12 at (  34,   1,  27)
       Min divergence: -0.12E-12 at (  19,   1,  21)
       Max VN number:   0.22E-01 at (  50,   1,  39)
       Mesh    2
       Max CFL number:  0.48E+00 at (  44,   1,  13)
       Max divergence:  0.39E-12 at (  72,   1,  10)
       Min divergence: -0.68E-12 at (  27,   1,  27)
       Max VN number:   0.22E-01 at (  22,   1,  30)
       Mesh    3
       Max CFL number:  0.47E+00 at (   8,   1,   6)
       Max divergence:  0.41E-12 at (  31,   1,  37)
       Min divergence: -0.28E-12 at (  66,   1,   3)
       Max VN number:   0.22E-01 at (  31,   1,  25)
       Mesh    4
       Max CFL number:  0.41E+00 at (   4,   1,  39)
       Max divergence:  0.31E-12 at (   3,   1,  37)
       Min divergence: -0.23E-12 at (   4,   1,  39)
       Max VN number:   0.22E-01 at (   4,   1,  21)
 
       Time Step    2200   July 15, 2020  15:58:09
       Step Size:    0.333E-03 s, Total Time:       1.35 s
       Pressure Iterations:     46
       Maximum Velocity Error:  0.99E-05 on Mesh   2 at (  76   1   1)
       Maximum Pressure Error:  0.41E-08 on Mesh   2 at (  27   1  27)
       ---------------------------------------------------------------
       Mesh    1
       Max CFL number:  0.28E+00 at (  20,   1,  25)
       Max divergence:  0.12E-12 at (  60,   1,  16)
       Min divergence: -0.11E-12 at (  20,   1,  25)
       Max VN number:   0.19E-01 at (  50,   1,  39)
       Mesh    2
       Max CFL number:  0.47E+00 at (  25,   1,  27)
       Max divergence:  0.34E-12 at (  26,   1,  26)
       Min divergence: -0.74E-12 at (  27,   1,  27)
       Max VN number:   0.19E-01 at (  22,   1,  30)
       Mesh    3
       Max CFL number:  0.43E+00 at (  14,   1,   7)
       Max divergence:  0.32E-12 at (  11,   1,  19)
       Min divergence: -0.33E-12 at (  10,   1,  12)
       Max VN number:   0.19E-01 at (   6,   1,  22)
       Mesh    4
       Max CFL number:  0.42E+00 at (   2,   1,   2)
       Max divergence:  0.35E-12 at (   8,   1,   4)
       Min divergence: -0.31E-12 at (   7,   1,   4)
       Max VN number:   0.19E-01 at (   4,   1,  21)
 
       Time Step    2300   July 15, 2020  15:58:19
       Step Size:    0.299E-03 s, Total Time:       1.38 s
       Pressure Iterations:     35
       Maximum Velocity Error:  0.97E-05 on Mesh   2 at (  76   1   1)
       Maximum Pressure Error:  0.45E-08 on Mesh   2 at (  27   1  15)
       ---------------------------------------------------------------
       Mesh    1
       Max CFL number:  0.25E+00 at (  20,   1,  25)
       Max divergence:  0.11E-12 at (  21,   1,  27)
       Min divergence: -0.14E-12 at (  20,   1,  24)
       Max VN number:   0.17E-01 at (  50,   1,  39)
       Mesh    2
       Max CFL number:  0.47E+00 at (  25,   1,  14)
       Max divergence:  0.38E-12 at (  37,   1,  17)
       Min divergence: -0.43E-12 at (  27,   1,  15)
       Max VN number:   0.17E-01 at (  22,   1,  30)
       Mesh    3
       Max CFL number:  0.37E+00 at (  69,   1,  35)
       Max divergence:  0.29E-12 at (  58,   1,  40)
       Min divergence: -0.32E-12 at (  66,   1,  37)
       Max VN number:   0.17E-01 at (   6,   1,  22)
       Mesh    4
       Max CFL number:  0.40E+00 at (  21,   1,   1)
       Max divergence:  0.28E-12 at (   1,   1,  35)
       Min divergence: -0.33E-12 at (   3,   1,  31)
       Max VN number:   0.17E-01 at (   4,   1,  21)
 
       Time Step    2400   July 15, 2020  15:58:29
       Step Size:    0.299E-03 s, Total Time:       1.41 s
       Pressure Iterations:     55
       Maximum Velocity Error:  0.99E-05 on Mesh   3 at (  76   1  40)
       Maximum Pressure Error:  0.40E-08 on Mesh   2 at (  27   1  15)
       ---------------------------------------------------------------
       Mesh    1
       Max CFL number:  0.25E+00 at (  20,   1,  25)
       Max divergence:  0.12E-12 at (  20,   1,  21)
       Min divergence: -0.23E-12 at (  20,   1,  25)
       Max VN number:   0.17E-01 at (  50,   1,  39)
       Mesh    2
       Max CFL number:  0.48E+00 at (  25,   1,  27)
       Max divergence:  0.43E-12 at (  30,   1,  27)
       Min divergence: -0.40E-12 at (  27,   1,  14)
       Max VN number:   0.17E-01 at (  22,   1,  30)
       Mesh    3
       Max CFL number:  0.38E+00 at (  55,   1,   8)
       Max divergence:  0.35E-12 at (  61,   1,  12)
       Min divergence: -0.33E-12 at (  33,   1,  31)
       Max VN number:   0.17E-01 at (   6,   1,  22)
       Mesh    4
       Max CFL number:  0.41E+00 at (  41,   1,   1)
       Max divergence:  0.30E-12 at (  39,   1,   2)
       Min divergence: -0.32E-12 at (   6,   1,  34)
       Max VN number:   0.17E-01 at (   4,   1,  21)
 
       Time Step    2500   July 15, 2020  15:58:45
       Step Size:    0.268E-03 s, Total Time:       1.43 s
       Pressure Iterations:     43
       Maximum Velocity Error:  0.10E-04 on Mesh   2 at (  76   1  40)
       Maximum Pressure Error:  0.60E-08 on Mesh   2 at (  27   1  26)
       ---------------------------------------------------------------
       Mesh    1
       Max CFL number:  0.23E+00 at (  20,   1,  25)
       Max divergence:  0.18E-12 at (  75,   1,  10)
       Min divergence: -0.11E-12 at (  19,   1,  25)
       Max VN number:   0.16E-01 at (  50,   1,  39)
       Mesh    2
       Max CFL number:  0.45E+00 at (  25,   1,  27)
       Max divergence:  0.63E-12 at (  37,   1,  14)
       Min divergence: -0.74E-12 at (  27,   1,  27)
       Max VN number:   0.16E-01 at (  22,   1,  30)
       Mesh    3
       Max CFL number:  0.34E+00 at (  14,   1,   9)
       Max divergence:  0.33E-12 at (   1,   1,  16)
       Min divergence: -0.25E-12 at (  36,   1,  30)
       Max VN number:   0.16E-01 at (   6,   1,  22)
       Mesh    4
       Max CFL number:  0.37E+00 at (  57,   1,   1)
       Max divergence:  0.36E-12 at (   3,   1,  11)
       Min divergence: -0.28E-12 at (   3,   1,  32)
       Max VN number:   0.16E-01 at (   4,   1,  21)
 
       Time Step    2600   July 15, 2020  15:58:59
       Step Size:    0.268E-03 s, Total Time:       1.46 s
       Pressure Iterations:     59
       Maximum Velocity Error:  0.99E-05 on Mesh   2 at (  76   1  40)
       Maximum Pressure Error:  0.39E-08 on Mesh   2 at (  27   1  15)
       ---------------------------------------------------------------
       Mesh    1
       Max CFL number:  0.23E+00 at (  20,   1,  25)
       Max divergence:  0.10E-12 at (  51,   1,  11)
       Min divergence: -0.12E-12 at (  54,   1,   4)
       Max VN number:   0.16E-01 at (  50,   1,  39)
       Mesh    2
       Max CFL number:  0.48E+00 at (  25,   1,  14)
       Max divergence:  0.42E-12 at (  35,   1,  27)
       Min divergence: -0.39E-12 at (  34,   1,  20)
       Max VN number:   0.16E-01 at (  22,   1,  30)
       Mesh    3
       Max CFL number:  0.34E+00 at (  28,   1,  12)
       Max divergence:  0.36E-12 at (  75,   1,   8)
       Min divergence: -0.33E-12 at (  31,   1,  21)
       Max VN number:   0.16E-01 at (   6,   1,  22)
       Mesh    4
       Max CFL number:  0.36E+00 at (  75,   1,   1)
       Max divergence:  0.29E-12 at (   4,   1,   5)
       Min divergence: -0.33E-12 at (   9,   1,  13)
       Max VN number:   0.16E-01 at (   4,   1,  21)
 
       Time Step    2700   July 15, 2020  15:59:10
       Step Size:    0.268E-03 s, Total Time:       1.49 s
       Pressure Iterations:     22
       Maximum Velocity Error:  0.95E-05 on Mesh   3 at (  76   1   1)
       Maximum Pressure Error:  0.70E-08 on Mesh   2 at (  27   1  15)
       ---------------------------------------------------------------
       Mesh    1
       Max CFL number:  0.23E+00 at (  20,   1,  25)
       Max divergence:  0.23E-12 at (  20,   1,  25)
       Min divergence: -0.11E-12 at (  17,   1,  25)
       Max VN number:   0.16E-01 at (  50,   1,  39)
       Mesh    2
       Max CFL number:  0.46E+00 at (  34,   1,  14)
       Max divergence:  0.34E-12 at (  37,   1,  27)
       Min divergence: -0.64E-12 at (  27,   1,  15)
       Max VN number:   0.16E-01 at (  22,   1,  30)
       Mesh    3
       Max CFL number:  0.33E+00 at (  16,   1,  33)
       Max divergence:  0.28E-12 at (  15,   1,  32)
       Min divergence: -0.33E-12 at (  16,   1,  31)
       Max VN number:   0.16E-01 at (   6,   1,  22)
       Mesh    4
       Max CFL number:  0.34E+00 at (  47,   1,  38)
       Max divergence:  0.31E-12 at (  25,   1,  11)
       Min divergence: -0.36E-12 at (   6,   1,   5)
       Max VN number:   0.16E-01 at (   4,   1,  21)
 
       Time Step    2800   July 15, 2020  15:59:19
       Step Size:    0.268E-03 s, Total Time:       1.51 s
       Pressure Iterations:     42
       Maximum Velocity Error:  0.10E-04 on Mesh   1 at (  76   1  40)
       Maximum Pressure Error:  0.40E-08 on Mesh   2 at (  27   1  15)
       ---------------------------------------------------------------
       Mesh    1
       Max CFL number:  0.23E+00 at (  20,   1,  25)
       Max divergence:  0.12E-12 at (  26,   1,  22)
       Min divergence: -0.23E-12 at (  20,   1,  25)
       Max VN number:   0.16E-01 at (  50,   1,  39)
       Mesh    2
       Max CFL number:  0.49E+00 at (  25,   1,  27)
       Max divergence:  0.46E-12 at (  26,   1,  27)
       Min divergence: -0.45E-12 at (  37,   1,  17)
       Max VN number:   0.16E-01 at (  22,   1,  30)
       Mesh    3
       Max CFL number:  0.39E+00 at (   4,   1,  10)
       Max divergence:  0.44E-12 at (   6,   1,  11)
       Min divergence: -0.33E-12 at (  18,   1,  31)
       Max VN number:   0.16E-01 at (   6,   1,  22)
       Mesh    4
       Max CFL number:  0.36E+00 at (  65,   1,  39)
       Max divergence:  0.28E-12 at (   1,   1,  32)
       Min divergence: -0.28E-12 at (   4,   1,  31)
       Max VN number:   0.16E-01 at (   4,   1,  21)
 
       Time Step    2900   July 15, 2020  15:59:34
       Step Size:    0.241E-03 s, Total Time:       1.54 s
       Pressure Iterations:     39
       Maximum Velocity Error:  0.10E-04 on Mesh   1 at (  76   1   1)
       Maximum Pressure Error:  0.55E-08 on Mesh   2 at (  27   1  26)
       ---------------------------------------------------------------
       Mesh    1
       Max CFL number:  0.21E+00 at (  20,   1,  25)
       Max divergence:  0.12E-12 at (  25,   1,  28)
       Min divergence: -0.12E-12 at (  62,   1,  16)
       Max VN number:   0.14E-01 at (  50,   1,  39)
       Mesh    2
       Max CFL number:  0.41E+00 at (  25,   1,  27)
       Max divergence:  0.33E-12 at (  58,   1,  29)
       Min divergence: -0.51E-12 at (  27,   1,  27)
       Max VN number:   0.14E-01 at (  22,   1,  30)
       Mesh    3
       Max CFL number:  0.33E+00 at (   6,   1,  10)
       Max divergence:  0.44E-12 at (  61,   1,  12)
       Min divergence: -0.31E-12 at (  10,   1,  12)
       Max VN number:   0.14E-01 at (   6,   1,  22)
       Mesh    4
       Max CFL number:  0.32E+00 at (  46,   1,   5)
       Max divergence:  0.31E-12 at (  11,   1,  31)
       Min divergence: -0.28E-12 at (  48,   1,   8)
       Max VN number:   0.14E-01 at (   4,   1,  21)
 
       Time Step    3000   July 15, 2020  15:59:44
       Step Size:    0.265E-03 s, Total Time:       1.57 s
       Pressure Iterations:     36
       Maximum Velocity Error:  0.98E-05 on Mesh   2 at (  76   1  40)
       Maximum Pressure Error:  0.36E-08 on Mesh   2 at (  27   1  26)
       ---------------------------------------------------------------
       Mesh    1
       Max CFL number:  0.23E+00 at (  20,   1,  25)
       Max divergence:  0.11E-12 at (  63,   1,   3)
       Min divergence: -0.13E-12 at (   7,   1,  25)
       Max VN number:   0.15E-01 at (  50,   1,  39)
       Mesh    2
       Max CFL number:  0.46E+00 at (  25,   1,  14)
       Max divergence:  0.41E-12 at (  27,   1,  28)
       Min divergence: -0.36E-12 at (  61,   1,  14)
       Max VN number:   0.15E-01 at (  22,   1,  30)
       Mesh    3
       Max CFL number:  0.40E+00 at (   3,   1,  32)
       Max divergence:  0.49E-12 at (  61,   1,  14)
       Min divergence: -0.35E-12 at (  16,   1,  15)
       Max VN number:   0.15E-01 at (   6,   1,  22)
       Mesh    4
       Max CFL number:  0.35E+00 at (  59,   1,   2)
       Max divergence:  0.28E-12 at (   6,   1,  24)
       Min divergence: -0.28E-12 at (   4,   1,  11)
       Max VN number:   0.15E-01 at (   4,   1,  21)
 
       Time Step    3100   July 15, 2020  16:00:04
       Step Size:    0.265E-03 s, Total Time:       1.59 s
       Pressure Iterations:     52
       Maximum Velocity Error:  0.10E-04 on Mesh   3 at (  76   1  23)
       Maximum Pressure Error:  0.80E-08 on Mesh   2 at (  27   1  15)
       ---------------------------------------------------------------
       Mesh    1
       Max CFL number:  0.23E+00 at (  20,   1,  25)
       Max divergence:  0.16E-12 at (  21,   1,  27)
       Min divergence: -0.14E-12 at (  19,   1,  21)
       Max VN number:   0.15E-01 at (  50,   1,  39)
       Mesh    2
       Max CFL number:  0.46E+00 at (  34,   1,  14)
       Max divergence:  0.44E-12 at (  37,   1,  26)
       Min divergence: -0.65E-12 at (  27,   1,  15)
       Max VN number:   0.15E-01 at (  22,   1,  30)
       Mesh    3
       Max CFL number:  0.41E+00 at (   8,   1,  32)
       Max divergence:  0.55E-12 at (  15,   1,  32)
       Min divergence: -0.64E-12 at (  12,   1,  29)
       Max VN number:   0.15E-01 at (   6,   1,  22)
       Mesh    4
       Max CFL number:  0.34E+00 at (  72,   1,   1)
       Max divergence:  0.32E-12 at (   8,   1,  10)
       Min divergence: -0.33E-12 at (   7,   1,   8)
       Max VN number:   0.15E-01 at (   4,   1,  21)
 
       Time Step    3200   July 15, 2020  16:00:16
       Step Size:    0.265E-03 s, Total Time:       1.62 s
       Pressure Iterations:     34
       Maximum Velocity Error:  0.99E-05 on Mesh   3 at (  76   1   1)
       Maximum Pressure Error:  0.45E-08 on Mesh   2 at (  27   1  15)
       ---------------------------------------------------------------
       Mesh    1
       Max CFL number:  0.23E+00 at (  20,   1,  25)
       Max divergence:  0.12E-12 at (  45,   1,  11)
       Min divergence: -0.11E-12 at (  20,   1,  25)
       Max VN number:   0.15E-01 at (  50,   1,  39)
       Mesh    2
       Max CFL number:  0.48E+00 at (  25,   1,  27)
       Max divergence:  0.61E-12 at (  72,   1,  17)
       Min divergence: -0.58E-12 at (  74,   1,  15)
       Max VN number:   0.15E-01 at (  22,   1,  30)
       Mesh    3
       Max CFL number:  0.42E+00 at (   5,   1,  12)
       Max divergence:  0.41E-12 at (   2,   1,  14)
       Min divergence: -0.33E-12 at (  10,   1,  12)
       Max VN number:   0.15E-01 at (   6,   1,  22)
       Mesh    4
       Max CFL number:  0.33E+00 at (  47,   1,  35)
       Max divergence:  0.39E-12 at (   2,   1,  21)
       Min divergence: -0.29E-12 at (   2,   1,  22)
       Max VN number:   0.15E-01 at (   4,   1,  21)
 
       Time Step    3300   July 15, 2020  16:00:28
       Step Size:    0.238E-03 s, Total Time:       1.64 s
       Pressure Iterations:     52
       Maximum Velocity Error:  0.99E-05 on Mesh   3 at (  76   1  40)
       Maximum Pressure Error:  0.50E-08 on Mesh   2 at (  27   1  26)
       ---------------------------------------------------------------
       Mesh    1
       Max CFL number:  0.21E+00 at (  20,   1,  25)
       Max divergence:  0.15E-12 at (  21,   1,  27)
       Min divergence: -0.11E-12 at (  30,   1,  11)
       Max VN number:   0.14E-01 at (  50,   1,  39)
       Mesh    2
       Max CFL number:  0.41E+00 at (  25,   1,  27)
       Max divergence:  0.42E-12 at (  26,   1,  14)
       Min divergence: -0.45E-12 at (  27,   1,  27)
       Max VN number:   0.14E-01 at (  22,   1,  30)
       Mesh    3
       Max CFL number:  0.38E+00 at (  16,   1,  12)
       Max divergence:  0.44E-12 at (  62,   1,  15)
       Min divergence: -0.62E-12 at (  12,   1,  16)
       Max VN number:   0.14E-01 at (   6,   1,  22)
       Mesh    4
       Max CFL number:  0.30E+00 at (  61,   1,  35)
       Max divergence:  0.33E-12 at (   7,   1,  31)
       Min divergence: -0.28E-12 at (   7,   1,  30)
       Max VN number:   0.14E-01 at (   4,   1,  21)
 
       Time Step    3400   July 15, 2020  16:00:41
       Step Size:    0.262E-03 s, Total Time:       1.67 s
       Pressure Iterations:     84
       Maximum Velocity Error:  0.10E-04 on Mesh   2 at (  76   1  40)
       Maximum Pressure Error:  0.44E-08 on Mesh   2 at (  27   1  15)
       ---------------------------------------------------------------
       Mesh    1
       Max CFL number:  0.23E+00 at (  20,   1,  25)
       Max divergence:  0.12E-12 at (  60,   1,  16)
       Min divergence: -0.13E-12 at (  25,   1,  21)
       Max VN number:   0.15E-01 at (  50,   1,  39)
       Mesh    2
       Max CFL number:  0.45E+00 at (  25,   1,  14)
       Max divergence:  0.63E-12 at (  26,   1,  14)
       Min divergence: -0.65E-12 at (  73,   1,  27)
       Max VN number:   0.15E-01 at (  22,   1,  30)
       Mesh    3
       Max CFL number:  0.41E+00 at (   3,   1,  32)
       Max divergence:  0.39E-12 at (  71,   1,   9)
       Min divergence: -0.39E-12 at (   4,   1,  28)
       Max VN number:   0.15E-01 at (   6,   1,  22)
       Mesh    4
       Max CFL number:  0.32E+00 at (  75,   1,  37)
       Max divergence:  0.33E-12 at (   7,   1,  31)
       Min divergence: -0.25E-12 at (  40,   1,   6)
       Max VN number:   0.15E-01 at (   4,   1,  21)
 
       Time Step    3500   July 15, 2020  16:00:49
       Step Size:    0.262E-03 s, Total Time:       1.69 s
       Pressure Iterations:     47
       Maximum Velocity Error:  0.99E-05 on Mesh   3 at (  76   1  14)
       Maximum Pressure Error:  0.80E-08 on Mesh   2 at (  27   1  15)
       ---------------------------------------------------------------
       Mesh    1
       Max CFL number:  0.23E+00 at (  20,   1,  25)
       Max divergence:  0.10E-12 at (   2,   1,  28)
       Min divergence: -0.12E-12 at (  24,   1,  21)
       Max VN number:   0.15E-01 at (  50,   1,  39)
       Mesh    2
       Max CFL number:  0.47E+00 at (  25,   1,  14)
       Max divergence:  0.75E-12 at (  37,   1,  26)
       Min divergence: -0.63E-12 at (  27,   1,  14)
       Max VN number:   0.15E-01 at (  22,   1,  30)
       Mesh    3
       Max CFL number:  0.41E+00 at (   8,   1,  32)
       Max divergence:  0.33E-12 at (  62,   1,  29)
       Min divergence: -0.67E-12 at (  12,   1,  30)
       Max VN number:   0.15E-01 at (   6,   1,  22)
       Mesh    4
       Max CFL number:  0.35E+00 at (  10,   1,   8)
       Max divergence:  0.33E-12 at (   8,   1,  10)
       Min divergence: -0.33E-12 at (   8,   1,   9)
       Max VN number:   0.15E-01 at (   4,   1,  21)
 
       Time Step    3600   July 15, 2020  16:00:58
       Step Size:    0.262E-03 s, Total Time:       1.72 s
       Pressure Iterations:     91
       Maximum Velocity Error:  0.10E-04 on Mesh   1 at (  76   1  18)
       Maximum Pressure Error:  0.51E-08 on Mesh   2 at (  27   1  15)
       ---------------------------------------------------------------
       Mesh    1
       Max CFL number:  0.24E+00 at (  20,   1,  25)
       Max divergence:  0.13E-12 at (  75,   1,  10)
       Min divergence: -0.12E-12 at (  27,   1,  29)
       Max VN number:   0.15E-01 at (  50,   1,  39)
       Mesh    2
       Max CFL number:  0.46E+00 at (  25,   1,  27)
       Max divergence:  0.57E-12 at (  72,   1,  18)
       Min divergence: -0.72E-12 at (  74,   1,  16)
       Max VN number:   0.15E-01 at (  22,   1,  30)
       Mesh    3
       Max CFL number:  0.43E+00 at (   5,   1,  12)
       Max divergence:  0.48E-12 at (  75,   1,  34)
       Min divergence: -0.37E-12 at (  43,   1,  15)
       Max VN number:   0.15E-01 at (   6,   1,  23)
       Mesh    4
       Max CFL number:  0.37E+00 at (   1,   1,  33)
       Max divergence:  0.39E-12 at (   1,   1,  35)
       Min divergence: -0.31E-12 at (   5,   1,  22)
       Max VN number:   0.15E-01 at (   4,   1,  21)
 
       Time Step    3700   July 15, 2020  16:01:10
       Step Size:    0.236E-03 s, Total Time:       1.74 s
       Pressure Iterations:     32
       Maximum Velocity Error:  0.99E-05 on Mesh   2 at (  76   1   1)
       Maximum Pressure Error:  0.61E-08 on Mesh   2 at (  27   1  26)
       ---------------------------------------------------------------
       Mesh    1
       Max CFL number:  0.21E+00 at (  20,   1,  25)
       Max divergence:  0.11E-12 at (  31,   1,  33)
       Min divergence: -0.12E-12 at (  22,   1,  23)
       Max VN number:   0.14E-01 at (  50,   1,  39)
       Mesh    2
       Max CFL number:  0.41E+00 at (  25,   1,  27)
       Max divergence:  0.47E-12 at (  37,   1,  25)
       Min divergence: -0.65E-12 at (  27,   1,  27)
       Max VN number:   0.14E-01 at (  22,   1,  30)
       Mesh    3
       Max CFL number:  0.39E+00 at (  17,   1,  12)
       Max divergence:  0.50E-12 at (  62,   1,  13)
       Min divergence: -0.64E-12 at (  12,   1,  16)
       Max VN number:   0.14E-01 at (   6,   1,  22)
       Mesh    4
       Max CFL number:  0.33E+00 at (   5,   1,  33)
       Max divergence:  0.31E-12 at (   3,   1,  37)
       Min divergence: -0.33E-12 at (  16,   1,   7)
       Max VN number:   0.14E-01 at (   4,   1,  21)
 
       Time Step    3800   July 15, 2020  16:01:18
       Step Size:    0.259E-03 s, Total Time:       1.77 s
       Pressure Iterations:     51
       Maximum Velocity Error:  0.99E-05 on Mesh   2 at (  76   1  40)
       Maximum Pressure Error:  0.53E-08 on Mesh   2 at (  73   1  28)
       ---------------------------------------------------------------
       Mesh    1
       Max CFL number:  0.23E+00 at (  20,   1,  25)
       Max divergence:  0.14E-12 at (  33,   1,  29)
       Min divergence: -0.15E-12 at (  34,   1,  31)
       Max VN number:   0.15E-01 at (  50,   1,  39)
       Mesh    2
       Max CFL number:  0.44E+00 at (  49,   1,  13)
       Max divergence:  0.55E-12 at (  26,   1,  14)
       Min divergence: -0.55E-12 at (  73,   1,  29)
       Max VN number:   0.15E-01 at (  22,   1,  30)
       Mesh    3
       Max CFL number:  0.42E+00 at (  20,   1,  12)
       Max divergence:  0.47E-12 at (  70,   1,  11)
       Min divergence: -0.33E-12 at (  15,   1,  20)
       Max VN number:   0.15E-01 at (   6,   1,  22)
       Mesh    4
       Max CFL number:  0.38E+00 at (   1,   1,  11)
       Max divergence:  0.38E-12 at (  25,   1,  31)
       Min divergence: -0.28E-12 at (  30,   1,  27)
       Max VN number:   0.15E-01 at (   4,   1,  21)
 
       Time Step    3900   July 15, 2020  16:01:36
       Step Size:    0.234E-03 s, Total Time:       1.79 s
       Pressure Iterations:     32
       Maximum Velocity Error:  0.98E-05 on Mesh   2 at (  76   1  40)
       Maximum Pressure Error:  0.77E-08 on Mesh   2 at (  27   1  15)
       ---------------------------------------------------------------
       Mesh    1
       Max CFL number:  0.21E+00 at (  20,   1,  25)
       Max divergence:  0.12E-12 at (  26,   1,  21)
       Min divergence: -0.13E-12 at (  27,   1,  31)
       Max VN number:   0.14E-01 at (  50,   1,  39)
       Mesh    2
       Max CFL number:  0.43E+00 at (  25,   1,  14)
       Max divergence:  0.71E-12 at (  37,   1,  23)
       Min divergence: -0.65E-12 at (  27,   1,  14)
       Max VN number:   0.14E-01 at (  22,   1,  30)
       Mesh    3
       Max CFL number:  0.37E+00 at (  32,   1,  12)
       Max divergence:  0.42E-12 at (  42,   1,  16)
       Min divergence: -0.64E-12 at (  12,   1,  30)
       Max VN number:   0.14E-01 at (   6,   1,  22)
       Mesh    4
       Max CFL number:  0.34E+00 at (   3,   1,  10)
       Max divergence:  0.45E-12 at (   2,   1,  12)
       Min divergence: -0.36E-12 at (   9,   1,   9)
       Max VN number:   0.14E-01 at (   4,   1,  21)
 
       Time Step    4000   July 15, 2020  16:01:46
       Step Size:    0.257E-03 s, Total Time:       1.82 s
       Pressure Iterations:     41
       Maximum Velocity Error:  0.10E-04 on Mesh   3 at (  76   1  40)
       Maximum Pressure Error:  0.64E-08 on Mesh   2 at (  27   1  15)
       ---------------------------------------------------------------
       Mesh    1
       Max CFL number:  0.23E+00 at (  20,   1,  25)
       Max divergence:  0.14E-12 at (  26,   1,  19)
       Min divergence: -0.13E-12 at (  32,   1,  40)
       Max VN number:   0.15E-01 at (  50,   1,  39)
       Mesh    2
       Max CFL number:  0.44E+00 at (  25,   1,  27)
       Max divergence:  0.50E-12 at (  72,   1,  16)
       Min divergence: -0.48E-12 at (  73,   1,  15)
       Max VN number:   0.15E-01 at (  22,   1,  30)
       Mesh    3
       Max CFL number:  0.43E+00 at (   4,   1,  12)
       Max divergence:  0.44E-12 at (  42,   1,  14)
       Min divergence: -0.44E-12 at (  43,   1,  16)
       Max VN number:   0.15E-01 at (   6,   1,  22)
       Mesh    4
       Max CFL number:  0.38E+00 at (  23,   1,  10)
       Max divergence:  0.47E-12 at (  25,   1,  14)
       Min divergence: -0.42E-12 at (  48,   1,  27)
       Max VN number:   0.15E-01 at (   4,   1,  21)
 
       Time Step    4100   July 15, 2020  16:01:55
       Step Size:    0.257E-03 s, Total Time:       1.84 s
       Pressure Iterations:     26
       Maximum Velocity Error:  0.98E-05 on Mesh   2 at (  76   1   1)
       Maximum Pressure Error:  0.58E-08 on Mesh   2 at (  27   1  26)
       ---------------------------------------------------------------
       Mesh    1
       Max CFL number:  0.23E+00 at (  20,   1,  25)
       Max divergence:  0.13E-12 at (  45,   1,  32)
       Min divergence: -0.16E-12 at (  25,   1,  34)
       Max VN number:   0.15E-01 at (  50,   1,  39)
       Mesh    2
       Max CFL number:  0.46E+00 at (  25,   1,  27)
       Max divergence:  0.49E-12 at (  37,   1,  18)
       Min divergence: -0.56E-12 at (  27,   1,  14)
       Max VN number:   0.15E-01 at (  22,   1,  30)
       Mesh    3
       Max CFL number:  0.43E+00 at (  16,   1,  12)
       Max divergence:  0.45E-12 at (  13,   1,  14)
       Min divergence: -0.71E-12 at (  12,   1,  15)
       Max VN number:   0.15E-01 at (   6,   1,  22)
       Mesh    4
       Max CFL number:  0.38E+00 at (  56,   1,  34)
       Max divergence:  0.28E-12 at (   6,   1,  30)
       Min divergence: -0.36E-12 at (   8,   1,  32)
       Max VN number:   0.15E-01 at (   4,   1,  21)
 
       Time Step    4200   July 15, 2020  16:02:02
       Step Size:    0.257E-03 s, Total Time:       1.87 s
       Pressure Iterations:     87
       Maximum Velocity Error:  0.10E-04 on Mesh   2 at (  76   1  40)
       Maximum Pressure Error:  0.58E-08 on Mesh   2 at (  73   1  28)
       ---------------------------------------------------------------
       Mesh    1
       Max CFL number:  0.23E+00 at (  20,   1,  25)
       Max divergence:  0.14E-12 at (  75,   1,  37)
       Min divergence: -0.23E-12 at (  20,   1,  25)
       Max VN number:   0.15E-01 at (  50,   1,  39)
       Mesh    2
       Max CFL number:  0.44E+00 at (  49,   1,  13)
       Max divergence:  0.63E-12 at (  26,   1,  14)
       Min divergence: -0.77E-12 at (  73,   1,  28)
       Max VN number:   0.15E-01 at (  22,   1,  30)
       Mesh    3
       Max CFL number:  0.42E+00 at (  20,   1,  12)
       Max divergence:  0.50E-12 at (  28,   1,  10)
       Min divergence: -0.57E-12 at (  43,   1,  30)
       Max VN number:   0.15E-01 at (   6,   1,  22)
       Mesh    4
       Max CFL number:  0.39E+00 at (   1,   1,  12)
       Max divergence:  0.50E-12 at (   1,   1,  10)
       Min divergence: -0.41E-12 at (  48,   1,  16)
       Max VN number:   0.15E-01 at (   4,   1,  21)
 
       Time Step    4300   July 15, 2020  16:02:11
       Step Size:    0.231E-03 s, Total Time:       1.89 s
       Pressure Iterations:     27
       Maximum Velocity Error:  0.10E-04 on Mesh   3 at (  76   1  40)
       Maximum Pressure Error:  0.76E-08 on Mesh   2 at (  27   1  15)
       ---------------------------------------------------------------
       Mesh    1
       Max CFL number:  0.21E+00 at (  20,   1,  25)
       Max divergence:  0.14E-12 at (  32,   1,  15)
       Min divergence: -0.15E-12 at (  68,   1,   2)
       Max VN number:   0.13E-01 at (  50,   1,  39)
       Mesh    2
       Max CFL number:  0.44E+00 at (  25,   1,  14)
       Max divergence:  0.40E-12 at (  26,   1,  12)
       Min divergence: -0.57E-12 at (  27,   1,  14)
       Max VN number:   0.13E-01 at (  22,   1,  30)
       Mesh    3
       Max CFL number:  0.38E+00 at (  32,   1,  12)
       Max divergence:  0.33E-12 at (  13,   1,  29)
       Min divergence: -0.57E-12 at (  12,   1,  30)
       Max VN number:   0.13E-01 at (   6,   1,  22)
       Mesh    4
       Max CFL number:  0.35E+00 at (  12,   1,  11)
       Max divergence:  0.52E-12 at (   4,   1,  15)
       Min divergence: -0.42E-12 at (  12,   1,  15)
       Max VN number:   0.13E-01 at (   4,   1,  21)
 
       Time Step    4400   July 15, 2020  16:02:22
       Step Size:    0.254E-03 s, Total Time:       1.92 s
       Pressure Iterations:     48
       Maximum Velocity Error:  0.99E-05 on Mesh   3 at (  76   1  40)
       Maximum Pressure Error:  0.70E-08 on Mesh   2 at (  27   1  15)
       ---------------------------------------------------------------
       Mesh    1
       Max CFL number:  0.23E+00 at (  20,   1,  25)
       Max divergence:  0.17E-12 at (  19,   1,  25)
       Min divergence: -0.14E-12 at (  51,   1,  34)
       Max VN number:   0.15E-01 at (  50,   1,  39)
       Mesh    2
       Max CFL number:  0.44E+00 at (  25,   1,  27)
       Max divergence:  0.56E-12 at (  72,   1,  16)
       Min divergence: -0.59E-12 at (  73,   1,  19)
       Max VN number:   0.15E-01 at (  22,   1,  30)
       Mesh    3
       Max CFL number:  0.43E+00 at (   3,   1,  12)
       Max divergence:  0.44E-12 at (   8,   1,  16)
       Min divergence: -0.56E-12 at (  43,   1,  16)
       Max VN number:   0.15E-01 at (   6,   1,  22)
       Mesh    4
       Max CFL number:  0.38E+00 at (  24,   1,  11)
       Max divergence:  0.41E-12 at (  50,   1,  27)
       Min divergence: -0.44E-12 at (   9,   1,  16)
       Max VN number:   0.15E-01 at (   4,   1,  21)
 
       Time Step    4500   July 15, 2020  16:02:35
       Step Size:    0.254E-03 s, Total Time:       1.94 s
       Pressure Iterations:     25
       Maximum Velocity Error:  0.97E-05 on Mesh   3 at (  76   1   1)
       Maximum Pressure Error:  0.60E-08 on Mesh   2 at (  27   1  26)
       ---------------------------------------------------------------
       Mesh    1
       Max CFL number:  0.23E+00 at (  20,   1,  25)
       Max divergence:  0.14E-12 at (  75,   1,  31)
       Min divergence: -0.12E-12 at (  35,   1,  13)
       Max VN number:   0.15E-01 at (  50,   1,  39)
       Mesh    2
       Max CFL number:  0.46E+00 at (  25,   1,  27)
       Max divergence:  0.48E-12 at (  26,   1,  14)
       Min divergence: -0.57E-12 at (  27,   1,  27)
       Max VN number:   0.15E-01 at (  22,   1,  30)
       Mesh    3
       Max CFL number:  0.43E+00 at (  15,   1,  12)
       Max divergence:  0.49E-12 at (  13,   1,  14)
       Min divergence: -0.81E-12 at (  12,   1,  15)
       Max VN number:   0.15E-01 at (   6,   1,  22)
       Mesh    4
       Max CFL number:  0.38E+00 at (  57,   1,  34)
       Max divergence:  0.38E-12 at (   6,   1,  30)
       Min divergence: -0.39E-12 at (   8,   1,  37)
       Max VN number:   0.15E-01 at (   4,   1,  21)
 
       Time Step    4600   July 15, 2020  16:02:49
       Step Size:    0.254E-03 s, Total Time:       1.97 s
       Pressure Iterations:    118
       Maximum Velocity Error:  0.10E-04 on Mesh   2 at (  76   1  40)
       Maximum Pressure Error:  0.62E-08 on Mesh   2 at (  73   1  28)
       ---------------------------------------------------------------
       Mesh    1
       Max CFL number:  0.23E+00 at (  20,   1,  25)
       Max divergence:  0.13E-12 at (  51,   1,  14)
       Min divergence: -0.14E-12 at (  19,   1,  21)
       Max VN number:   0.15E-01 at (  50,   1,  39)
       Mesh    2
       Max CFL number:  0.44E+00 at (  48,   1,  13)
       Max divergence:  0.62E-12 at (  26,   1,  14)
       Min divergence: -0.93E-12 at (  73,   1,  28)
       Max VN number:   0.15E-01 at (  22,   1,  30)
       Mesh    3
       Max CFL number:  0.42E+00 at (  20,   1,  12)
       Max divergence:  0.44E-12 at (  19,   1,  13)
       Min divergence: -0.46E-12 at (  43,   1,  30)
       Max VN number:   0.15E-01 at (   6,   1,  22)
       Mesh    4
       Max CFL number:  0.39E+00 at (   1,   1,  12)
       Max divergence:  0.45E-12 at (  50,   1,  14)
       Min divergence: -0.53E-12 at (  48,   1,  15)
       Max VN number:   0.15E-01 at (   4,   1,  21)
 
       Time Step    4700   July 15, 2020  16:03:12
       Step Size:    0.254E-03 s, Total Time:       2.00 s
       Pressure Iterations:     34
       Maximum Velocity Error:  0.97E-05 on Mesh   3 at (  76   1  40)
       Maximum Pressure Error:  0.78E-08 on Mesh   2 at (  27   1  15)
       ---------------------------------------------------------------
       Mesh    1
       Max CFL number:  0.23E+00 at (  20,   1,  25)
       Max divergence:  0.14E-12 at (  56,   1,  14)
       Min divergence: -0.15E-12 at (  66,   1,  18)
       Max VN number:   0.15E-01 at (  50,   1,  39)
       Mesh    2
       Max CFL number:  0.49E+00 at (  25,   1,  14)
       Max divergence:  0.60E-12 at (  37,   1,  21)
       Min divergence: -0.57E-12 at (  27,   1,  14)
       Max VN number:   0.15E-01 at (  22,   1,  30)
       Mesh    3
       Max CFL number:  0.42E+00 at (  32,   1,  12)
       Max divergence:  0.44E-12 at (  13,   1,  29)
       Min divergence: -0.53E-12 at (  61,   1,  30)
       Max VN number:   0.15E-01 at (   6,   1,  22)
       Mesh    4
       Max CFL number:  0.39E+00 at (  54,   1,   8)
       Max divergence:  0.41E-12 at (   7,   1,   7)
       Min divergence: -0.38E-12 at (  14,   1,  14)
       Max VN number:   0.15E-01 at (   4,   1,  21)
 
       Time Step    4720   July 15, 2020  16:03:13
       Step Size:    0.130E-03 s, Total Time:       2.00 s
       Pressure Iterations:     17
       Maximum Velocity Error:  0.99E-05 on Mesh   3 at (  76   1  40)
       Maximum Pressure Error:  0.91E-08 on Mesh   2 at (  27   1  15)
       ---------------------------------------------------------------
       Mesh    1
       Max CFL number:  0.12E+00 at (  20,   1,  25)
       Max divergence:  0.13E-12 at (  53,   1,  35)
       Min divergence: -0.12E-12 at (  40,   1,  30)
       Max VN number:   0.75E-02 at (  50,   1,  39)
       Mesh    2
       Max CFL number:  0.24E+00 at (  34,   1,  14)
       Max divergence:  0.57E-12 at (  37,   1,  27)
       Min divergence: -0.39E-12 at (  39,   1,  26)
       Max VN number:   0.75E-02 at (  22,   1,  30)
       Mesh    3
       Max CFL number:  0.21E+00 at (  42,   1,  12)
       Max divergence:  0.40E-12 at (  10,   1,  30)
       Min divergence: -0.45E-12 at (  36,   1,  13)
       Max VN number:   0.75E-02 at (   6,   1,  22)
       Mesh    4
       Max CFL number:  0.20E+00 at (  57,   1,   7)
       Max divergence:  0.49E-12 at (   6,   1,  14)
       Min divergence: -0.37E-12 at (  10,   1,  10)
       Max VN number:   0.75E-02 at (   4,   1,  21)
 


 Time Stepping Wall Clock Time (s):      463.791
 Total Elapsed Wall Clock Time (s):      464.059

STOP: FDS completed successfully (CHID: dancing_eddies_tight)
