
 Fire Dynamics Simulator

 Current Date     : July 15, 2020  15:52:25
 Revision         : FDS6.7.4-1001-g3529ee9-master
 Revision Date    : Wed Jul 15 15:36:03 2020 +0200
 Compiler         : Intel ifort 19.0.5.281
 Compilation Date : Jul 15, 2020 15:36:20

 MPI Enabled;    Number of MPI Processes:       8
 OpenMP Enabled; Number of OpenMP Threads:      2

 MPI version: 3.1
 MPI library version: Intel(R) MPI Library 2018 Update 1 for Linux* OS


 Job TITLE        : Unstructured ScaRC-CG for 2D-square with obstruction on 8 meshes
 Job ID string    : pressure_iteration2d_uscarc


 Grid Dimensions, Mesh     1

   Cells in the X Direction             8
   Cells in the Y Direction             1
   Cells in the Z Direction            16
   Number of Grid Cells               128


 Physical Dimensions, Mesh     1

   Length (m)                       0.200
   Width  (m)                       0.020
   Height (m)                       0.400
   Initial Time Step (s)            0.002

 Grid Dimensions, Mesh     2

   Cells in the X Direction             8
   Cells in the Y Direction             1
   Cells in the Z Direction            16
   Number of Grid Cells               128


 Physical Dimensions, Mesh     2

   Length (m)                       0.200
   Width  (m)                       0.020
   Height (m)                       0.400
   Initial Time Step (s)            0.002

 Grid Dimensions, Mesh     3

   Cells in the X Direction             8
   Cells in the Y Direction             1
   Cells in the Z Direction            16
   Number of Grid Cells               128


 Physical Dimensions, Mesh     3

   Length (m)                       0.200
   Width  (m)                       0.020
   Height (m)                       0.400
   Initial Time Step (s)            0.002

 Grid Dimensions, Mesh     4

   Cells in the X Direction             8
   Cells in the Y Direction             1
   Cells in the Z Direction            16
   Number of Grid Cells               128


 Physical Dimensions, Mesh     4

   Length (m)                       0.200
   Width  (m)                       0.020
   Height (m)                       0.400
   Initial Time Step (s)            0.002

 Grid Dimensions, Mesh     5

   Cells in the X Direction             8
   Cells in the Y Direction             1
   Cells in the Z Direction            16
   Number of Grid Cells               128


 Physical Dimensions, Mesh     5

   Length (m)                       0.200
   Width  (m)                       0.020
   Height (m)                       0.400
   Initial Time Step (s)            0.002

 Grid Dimensions, Mesh     6

   Cells in the X Direction             8
   Cells in the Y Direction             1
   Cells in the Z Direction            16
   Number of Grid Cells               128


 Physical Dimensions, Mesh     6

   Length (m)                       0.200
   Width  (m)                       0.020
   Height (m)                       0.400
   Initial Time Step (s)            0.002

 Grid Dimensions, Mesh     7

   Cells in the X Direction             8
   Cells in the Y Direction             1
   Cells in the Z Direction            16
   Number of Grid Cells               128


 Physical Dimensions, Mesh     7

   Length (m)                       0.200
   Width  (m)                       0.020
   Height (m)                       0.400
   Initial Time Step (s)            0.002

 Grid Dimensions, Mesh     8

   Cells in the X Direction             8
   Cells in the Y Direction             1
   Cells in the Z Direction            16
   Number of Grid Cells               128


 Physical Dimensions, Mesh     8

   Length (m)                       0.200
   Width  (m)                       0.020
   Height (m)                       0.400
   Initial Time Step (s)            0.002

Total Number of Grid Cells          1024


 Miscellaneous Parameters

   Simulation Start Time (s)          0.0
   Simulation End Time (s)            0.5
   Ambient Temperature (C):         20.00


 Mass Fraction Transformation Matrix to Convert Species Mixtures (Columns) to Primitive Species (Rows)

                         AIR     
   NITROGEN              0.762470
   OXYGEN                0.230997
   CARBON DIOXIDE        0.000591
   WATER VAPOR           0.005941


 Primitive Species Information

   NITROGEN
   Gas Species
   Molecular Weight (g/mol)            28.01340
   Ambient Density (kg/m^3)            1.165
   Enthalpy of Formation (J/kg)        0.00E+00

   OXYGEN
   Gas Species
   Molecular Weight (g/mol)            31.99880
   Ambient Density (kg/m^3)            1.330
   Enthalpy of Formation (J/kg)        0.00E+00

   CARBON DIOXIDE
   Gas Species
   Molecular Weight (g/mol)            44.00950
   Ambient Density (kg/m^3)            1.830
   Enthalpy of Formation (J/kg)       -8.94E+06

   WATER VAPOR
   Gas Species
   Molecular Weight (g/mol)            18.01528
   Ambient Density (kg/m^3)            0.749
   Enthalpy of Formation (J/kg)       -1.34E+07


 Tracked (Lumped) Species Information

   AIR
   Molecular Weight (g/mol)            28.75199
   Ambient Density (kg/m^3)            1.195
   Initial Mass Fraction               1.000
   Enthalpy of Formation (J/kg)     -8.50E+04

   Sub Species                    Mass Fraction     Mole Fraction
   NITROGEN                       7.624701E-01      7.825730E-01
   OXYGEN                         2.309974E-01      2.075589E-01
   CARBON DIOXIDE                 5.914651E-04      3.864120E-04
   WATER VAPOR                    5.940984E-03      9.481679E-03
 
     Viscosity (kg/m/s) Ambient,  293 K:  1.80E-05
                                  500 K:  2.61E-05
                                 1000 K:  4.13E-05
                                 1500 K:  5.37E-05
   Therm. Cond. (W/m/K) Ambient,  293 K:  2.56E-02
                                  500 K:  3.81E-02
                                 1000 K:  6.69E-02
                                 1500 K:  9.25E-02
        Enthalpy (J/kg) Ambient,  293 K: -9.01E+04
                                  500 K:  1.22E+05
                                 1000 K:  6.72E+05
                                 1500 K:  1.27E+06
    Spec. Heat (J/kg/K) Ambient,  293 K:  1.02E+03
                                  500 K:  1.04E+03
                                 1000 K:  1.16E+03
                                 1500 K:  1.23E+03
   Diff. Coeff. (m^2/s) Ambient,  293 K:  1.99E-05
                                  500 K:  4.96E-05
                                 1000 K:  1.58E-04
                                 1500 K:  3.09E-04


 Material Information


 Surface Conditions

   0 INERT (DEFAULT)

   1 INFLOW1
     Normal Velocity (m/s)        -2.000
     AIR Mass Fraction         1.000

   2 INFLOW2
     Normal Velocity (m/s)        -2.000
     AIR Mass Fraction         1.000

   3 OPEN
     Passive Vent to Atmosphere

   4 MIRROR
     Symmetry Plane

   5 INTERPOLATED

   6 PERIODIC

   7 HVAC

   8 MASSLESS TRACER

   9 DROPLET

  10 EVACUATION_OUTFLOW
     Normal Velocity (m/s)         0.000

  11 MASSLESS TARGET

  12 PERIODIC WIND


 Device Coordinates

     1 Coords:      0.640000      0.000000      0.410000, Make: null, ID: u-vel, Quantity: U-VELOCITY
     2 Coords:      0.640000      0.000000      0.410000, Make: null, ID: w-vel, Quantity: W-VELOCITY
     3 Coords:      0.640000      0.000000      0.410000, Make: null, ID: pres, Quantity: PRESSURE
     4 Coords:      0.000250      0.000000      0.000250, Make: null, ID: error, Quantity: MAXIMUM VELOCITY ERROR
     5 Coords:      0.000250      0.000000      0.000250, Make: null, ID: iter, Quantity: PRESSURE ITERATIONS
     6 Coords:      0.000250      0.000000      0.000250, Make: null, ID: scarc-iter, Quantity: SCARC ITERATIONS
     7 Coords:      0.000250      0.000000      0.000250, Make: null, ID: scarc-rate, Quantity: SCARC CONVERGENCE RATE
     8 Coords:      0.000250      0.000000      0.000250, Make: null, ID: scarc-res, Quantity: SCARC RESIDUAL


 Slice File Information, Mesh     1

   Sampling Interval (s)             0.001

   1 Nodes:   0   8   1   1   0  16, Quantity: VELOCITY
   2 Nodes:   0   8   1   1   0  16, Quantity: U-VELOCITY
   3 Nodes:   0   8   1   1   0  16, Quantity: W-VELOCITY
   4 Nodes:   0   8   1   1   0  16, Quantity: PRESSURE
   5 Nodes:   0   8   1   1   0  16, Quantity: H


 Radiation Model Information

   Number of control angles   60
   Time step increment         2
   Angle increment             4
   Phi band   N_theta Solid angle
     1:       60     0.209
   Using gray gas absorption.
   Mean beam length  0.100 m


 USCARC Information

   Discretization             STRUCTURED
   Global solver                  KRYLOV
   Storage technique             COMPACT
   Preconditioner                PARDISO
   MKL precision                  DOUBLE
   Max iterations                   1000
   Stopping accuracy            0.10E-07
 
 

 Run Time Diagnostics

       Time Step       1   July 15, 2020  15:52:25
       Step Size:    0.200E-02 s, Total Time:      0.002 s
       Pressure Iterations:     10
       Maximum Velocity Error:  0.35E-17 on Mesh   2 at (   5   1   0)
       Maximum Pressure Error:  0.31E+06 on Mesh   2 at (   5   1  13)
       ScaRC: iterations     0, residual  0.75E-08, convergence rate   0.00E+00
       ---------------------------------------------------------------
       Mesh    1
       Max CFL number:  0.29E+00 at (   1,   1,  13)
       Max divergence:  0.17E-04 at (   8,   1,  16)
       Min divergence: -0.11E-03 at (   1,   1,  12)
       Max VN number:   0.27E-03 at (   8,   1,  16)
       Mesh    2
       Max CFL number:  0.78E-01 at (   4,   1,  12)
       Max divergence:  0.17E-04 at (   1,   1,  16)
       Min divergence: -0.23E-04 at (   4,   1,  12)
       Max VN number:   0.27E-03 at (   4,   1,  16)
       Mesh    3
       Max CFL number:  0.94E-01 at (   5,   1,  12)
       Max divergence:  0.36E-04 at (   5,   1,  13)
       Min divergence: -0.93E-06 at (   5,   1,   1)
       Max VN number:   0.27E-03 at (   8,   1,  16)
       Mesh    4
       Max CFL number:  0.33E-01 at (   1,   1,  10)
       Max divergence:  0.90E-05 at (   1,   1,  14)
       Min divergence: -0.28E-05 at (   1,   1,   1)
       Max VN number:   0.27E-03 at (   8,   1,  16)
       Mesh    5
       Max CFL number:  0.33E+00 at (   1,   1,   4)
       Max divergence:  0.15E-03 at (   1,   1,   5)
       Min divergence:  0.25E-04 at (   8,   1,   1)
       Max VN number:   0.27E-03 at (   8,   1,  16)
       Mesh    6
       Max CFL number:  0.15E+00 at (   4,   1,   5)
       Max divergence:  0.69E-04 at (   4,   1,   4)
       Min divergence:  0.28E-05 at (   8,   1,   5)
       Max VN number:   0.27E-03 at (   8,   1,  16)
       Mesh    7
       Max CFL number:  0.36E-01 at (   1,   1,   8)
       Max divergence:  0.20E-04 at (   1,   1,  16)
       Min divergence: -0.14E-05 at (   5,   1,   5)
       Max VN number:   0.27E-03 at (   8,   1,  16)
       Mesh    8
       Max CFL number:  0.19E-01 at (   1,   1,   1)
       Max divergence:  0.62E-05 at (   1,   1,   1)
       Min divergence: -0.25E-05 at (   8,   1,   9)
       Max VN number:   0.27E-03 at (   8,   1,  16)
 
       Time Step       2   July 15, 2020  15:52:25
       Step Size:    0.200E-02 s, Total Time:      0.004 s
       Pressure Iterations:      1
       Maximum Velocity Error:  0.56E-16 on Mesh   1 at (   1   1  17)
       Maximum Pressure Error:  0.38E+04 on Mesh   2 at (   5   1  13)
       ScaRC: iterations    56, residual  0.78E-08, convergence rate   0.58E+00
       ---------------------------------------------------------------
       Mesh    1
       Max CFL number:  0.28E+00 at (   1,   1,  13)
       Max divergence:  0.17E-04 at (   8,   1,  16)
       Min divergence: -0.11E-03 at (   1,   1,  12)
       Max VN number:   0.27E-03 at (   1,   1,  16)
       Mesh    2
       Max CFL number:  0.77E-01 at (   4,   1,  12)
       Max divergence:  0.18E-04 at (   1,   1,  16)
       Min divergence: -0.23E-04 at (   4,   1,  12)
       Max VN number:   0.27E-03 at (   4,   1,  16)
       Mesh    3
       Max CFL number:  0.95E-01 at (   5,   1,  12)
       Max divergence:  0.36E-04 at (   5,   1,  13)
       Min divergence: -0.42E-06 at (   7,   1,   1)
       Max VN number:   0.27E-03 at (   8,   1,  16)
       Mesh    4
       Max CFL number:  0.34E-01 at (   1,   1,  10)
       Max divergence:  0.99E-05 at (   1,   1,  14)
       Min divergence: -0.19E-05 at (   1,   1,   1)
       Max VN number:   0.27E-03 at (   8,   1,  16)
       Mesh    5
       Max CFL number:  0.32E+00 at (   1,   1,   4)
       Max divergence:  0.15E-03 at (   1,   1,   5)
       Min divergence:  0.25E-04 at (   8,   1,   1)
       Max VN number:   0.27E-03 at (   8,   1,  16)
       Mesh    6
       Max CFL number:  0.15E+00 at (   4,   1,   5)
       Max divergence:  0.72E-04 at (   4,   1,   4)
       Min divergence:  0.28E-05 at (   8,   1,   5)
       Max VN number:   0.27E-03 at (   8,   1,  16)
       Mesh    7
       Max CFL number:  0.37E-01 at (   1,   1,   8)
       Max divergence:  0.21E-04 at (   1,   1,  16)
       Min divergence: -0.11E-05 at (   5,   1,   5)
       Max VN number:   0.27E-03 at (   8,   1,  16)
       Mesh    8
       Max CFL number:  0.19E-01 at (   1,   1,   1)
       Max divergence:  0.68E-05 at (   1,   1,   1)
       Min divergence: -0.15E-05 at (   8,   1,   8)
       Max VN number:   0.27E-03 at (   8,   1,  16)
 
       Time Step       3   July 15, 2020  15:52:25
       Step Size:    0.200E-02 s, Total Time:      0.006 s
       Pressure Iterations:      1
       Maximum Velocity Error:  0.56E-16 on Mesh   1 at (   3   1  17)
       Maximum Pressure Error:  0.38E+04 on Mesh   2 at (   5   1  13)
       ScaRC: iterations    50, residual  0.61E-08, convergence rate   0.60E+00
       ---------------------------------------------------------------
       Mesh    1
       Max CFL number:  0.27E+00 at (   1,   1,  13)
       Max divergence:  0.18E-04 at (   8,   1,  16)
       Min divergence: -0.10E-03 at (   1,   1,  12)
       Max VN number:   0.27E-03 at (   1,   1,  16)
       Mesh    2
       Max CFL number:  0.77E-01 at (   4,   1,  12)
       Max divergence:  0.18E-04 at (   2,   1,  16)
       Min divergence: -0.23E-04 at (   4,   1,  12)
       Max VN number:   0.27E-03 at (   4,   1,  16)
       Mesh    3
       Max CFL number:  0.97E-01 at (   5,   1,  12)
       Max divergence:  0.36E-04 at (   5,   1,  13)
       Min divergence: -0.36E-06 at (   8,   1,   1)
       Max VN number:   0.27E-03 at (   8,   1,  16)
       Mesh    4
       Max CFL number:  0.35E-01 at (   1,   1,  10)
       Max divergence:  0.10E-04 at (   1,   1,  14)
       Min divergence: -0.19E-05 at (   1,   1,   1)
       Max VN number:   0.27E-03 at (   8,   1,  16)
       Mesh    5
       Max CFL number:  0.31E+00 at (   1,   1,   4)
       Max divergence:  0.14E-03 at (   1,   1,   5)
       Min divergence:  0.26E-04 at (   1,   1,   1)
       Max VN number:   0.27E-03 at (   8,   1,  16)
       Mesh    6
       Max CFL number:  0.16E+00 at (   4,   1,   5)
       Max divergence:  0.74E-04 at (   4,   1,   4)
       Min divergence:  0.28E-05 at (   8,   1,   5)
       Max VN number:   0.27E-03 at (   8,   1,  16)
       Mesh    7
       Max CFL number:  0.37E-01 at (   1,   1,   8)
       Max divergence:  0.21E-04 at (   1,   1,  16)
       Min divergence: -0.93E-06 at (   5,   1,   5)
       Max VN number:   0.27E-03 at (   8,   1,  16)
       Mesh    8
       Max CFL number:  0.20E-01 at (   1,   1,   1)
       Max divergence:  0.70E-05 at (   1,   1,   1)
       Min divergence: -0.15E-05 at (   8,   1,   8)
       Max VN number:   0.27E-03 at (   8,   1,  16)
 
       Time Step       4   July 15, 2020  15:52:25
       Step Size:    0.200E-02 s, Total Time:      0.008 s
       Pressure Iterations:      1
       Maximum Velocity Error:  0.56E-16 on Mesh   1 at (   1   1  17)
       Maximum Pressure Error:  0.39E+04 on Mesh   2 at (   5   1  13)
       ScaRC: iterations    50, residual  0.62E-08, convergence rate   0.60E+00
       ---------------------------------------------------------------
       Mesh    1
       Max CFL number:  0.27E+00 at (   1,   1,  13)
       Max divergence:  0.18E-04 at (   8,   1,  16)
       Min divergence: -0.97E-04 at (   1,   1,  12)
       Max VN number:   0.27E-03 at (   1,   1,  16)
       Mesh    2
       Max CFL number:  0.76E-01 at (   4,   1,  12)
       Max divergence:  0.19E-04 at (   2,   1,  16)
       Min divergence: -0.23E-04 at (   4,   1,  12)
       Max VN number:   0.27E-03 at (   4,   1,  16)
       Mesh    3
       Max CFL number:  0.99E-01 at (   5,   1,  12)
       Max divergence:  0.36E-04 at (   5,   1,  13)
       Min divergence: -0.38E-07 at (   8,   1,   1)
       Max VN number:   0.27E-03 at (   8,   1,  16)
       Mesh    4
       Max CFL number:  0.35E-01 at (   1,   1,  10)
       Max divergence:  0.11E-04 at (   1,   1,  13)
       Min divergence: -0.14E-05 at (   1,   1,   1)
       Max VN number:   0.27E-03 at (   8,   1,  16)
       Mesh    5
       Max CFL number:  0.30E+00 at (   1,   1,   4)
       Max divergence:  0.13E-03 at (   1,   1,   5)
       Min divergence:  0.23E-04 at (   1,   1,   1)
       Max VN number:   0.27E-03 at (   8,   1,  16)
       Mesh    6
       Max CFL number:  0.16E+00 at (   4,   1,   5)
       Max divergence:  0.76E-04 at (   4,   1,   4)
       Min divergence:  0.28E-05 at (   8,   1,   5)
       Max VN number:   0.27E-03 at (   8,   1,  16)
       Mesh    7
       Max CFL number:  0.37E-01 at (   1,   1,   8)
       Max divergence:  0.22E-04 at (   1,   1,  16)
       Min divergence: -0.71E-06 at (   5,   1,   5)
       Max VN number:   0.27E-03 at (   8,   1,  16)
       Mesh    8
       Max CFL number:  0.20E-01 at (   1,   1,   1)
       Max divergence:  0.75E-05 at (   1,   1,   1)
       Min divergence: -0.77E-06 at (   8,   1,   6)
       Max VN number:   0.27E-03 at (   8,   1,  16)
 
       Time Step       5   July 15, 2020  15:52:25
       Step Size:    0.200E-02 s, Total Time:       0.01 s
       Pressure Iterations:      1
       Maximum Velocity Error:  0.56E-16 on Mesh   2 at (   9   1  12)
       Maximum Pressure Error:  0.39E+04 on Mesh   2 at (   5   1  13)
       ScaRC: iterations    50, residual  0.62E-08, convergence rate   0.61E+00
       ---------------------------------------------------------------
       Mesh    1
       Max CFL number:  0.26E+00 at (   1,   1,  13)
       Max divergence:  0.19E-04 at (   8,   1,  16)
       Min divergence: -0.93E-04 at (   1,   1,  12)
       Max VN number:   0.27E-03 at (   1,   1,  16)
       Mesh    2
       Max CFL number:  0.76E-01 at (   4,   1,  12)
       Max divergence:  0.19E-04 at (   2,   1,  16)
       Min divergence: -0.23E-04 at (   4,   1,  12)
       Max VN number:   0.27E-03 at (   4,   1,  16)
       Mesh    3
       Max CFL number:  0.10E+00 at (   5,   1,  12)
       Max divergence:  0.36E-04 at (   5,   1,  13)
       Min divergence:  0.88E-09 at (   8,   1,   1)
       Max VN number:   0.27E-03 at (   8,   1,  16)
       Mesh    4
       Max CFL number:  0.36E-01 at (   1,   1,  10)
       Max divergence:  0.12E-04 at (   1,   1,  13)
       Min divergence: -0.13E-05 at (   1,   1,   1)
       Max VN number:   0.27E-03 at (   8,   1,  16)
       Mesh    5
       Max CFL number:  0.29E+00 at (   1,   1,   4)
       Max divergence:  0.13E-03 at (   1,   1,   5)
       Min divergence:  0.21E-04 at (   1,   1,   1)
       Max VN number:   0.27E-03 at (   8,   1,  16)
       Mesh    6
       Max CFL number:  0.16E+00 at (   4,   1,   5)
       Max divergence:  0.78E-04 at (   4,   1,   4)
       Min divergence:  0.28E-05 at (   8,   1,   5)
       Max VN number:   0.27E-03 at (   8,   1,  16)
       Mesh    7
       Max CFL number:  0.37E-01 at (   1,   1,   8)
       Max divergence:  0.22E-04 at (   1,   1,  16)
       Min divergence: -0.51E-06 at (   5,   1,   5)
       Max VN number:   0.27E-03 at (   8,   1,  16)
       Mesh    8
       Max CFL number:  0.20E-01 at (   1,   1,   1)
       Max divergence:  0.77E-05 at (   1,   1,   1)
       Min divergence: -0.76E-06 at (   8,   1,   6)
       Max VN number:   0.27E-03 at (   8,   1,  16)
 
       Time Step       6   July 15, 2020  15:52:25
       Step Size:    0.200E-02 s, Total Time:       0.01 s
       Pressure Iterations:      1
       Maximum Velocity Error:  0.56E-16 on Mesh   1 at (   2   1  17)
       Maximum Pressure Error:  0.40E+04 on Mesh   2 at (   5   1  13)
       ScaRC: iterations    50, residual  0.62E-08, convergence rate   0.61E+00
       ---------------------------------------------------------------
       Mesh    1
       Max CFL number:  0.26E+00 at (   1,   1,  13)
       Max divergence:  0.19E-04 at (   8,   1,  16)
       Min divergence: -0.88E-04 at (   1,   1,  12)
       Max VN number:   0.27E-03 at (   1,   1,  16)
       Mesh    2
       Max CFL number:  0.75E-01 at (   4,   1,  12)
       Max divergence:  0.20E-04 at (   2,   1,  16)
       Min divergence: -0.23E-04 at (   4,   1,  12)
       Max VN number:   0.27E-03 at (   4,   1,  16)
       Mesh    3
       Max CFL number:  0.10E+00 at (   5,   1,  12)
       Max divergence:  0.37E-04 at (   5,   1,  13)
       Min divergence:  0.22E-06 at (   8,   1,   1)
       Max VN number:   0.27E-03 at (   8,   1,  16)
       Mesh    4
       Max CFL number:  0.37E-01 at (   1,   1,  10)
       Max divergence:  0.12E-04 at (   1,   1,  13)
       Min divergence: -0.87E-06 at (   1,   1,   1)
       Max VN number:   0.27E-03 at (   8,   1,  16)
       Mesh    5
       Max CFL number:  0.29E+00 at (   1,   1,   4)
       Max divergence:  0.12E-03 at (   2,   1,   5)
       Min divergence:  0.19E-04 at (   1,   1,   1)
       Max VN number:   0.27E-03 at (   8,   1,  16)
       Mesh    6
       Max CFL number:  0.16E+00 at (   4,   1,   5)
       Max divergence:  0.80E-04 at (   4,   1,   4)
       Min divergence:  0.27E-05 at (   8,   1,   5)
       Max VN number:   0.27E-03 at (   8,   1,  16)
       Mesh    7
       Max CFL number:  0.37E-01 at (   1,   1,   8)
       Max divergence:  0.23E-04 at (   1,   1,  16)
       Min divergence: -0.30E-06 at (   5,   1,   5)
       Max VN number:   0.27E-03 at (   8,   1,  16)
       Mesh    8
       Max CFL number:  0.21E-01 at (   1,   1,   1)
       Max divergence:  0.81E-05 at (   1,   1,   1)
       Min divergence: -0.48E-06 at (   8,   1,   1)
       Max VN number:   0.27E-03 at (   8,   1,  16)
 
       Time Step       7   July 15, 2020  15:52:25
       Step Size:    0.200E-02 s, Total Time:       0.01 s
       Pressure Iterations:      1
       Maximum Velocity Error:  0.56E-16 on Mesh   1 at (   2   1  17)
       Maximum Pressure Error:  0.40E+04 on Mesh   2 at (   5   1  13)
       ScaRC: iterations    50, residual  0.63E-08, convergence rate   0.61E+00
       ---------------------------------------------------------------
       Mesh    1
       Max CFL number:  0.25E+00 at (   1,   1,  13)
       Max divergence:  0.20E-04 at (   8,   1,  16)
       Min divergence: -0.84E-04 at (   1,   1,  12)
       Max VN number:   0.27E-03 at (   1,   1,  16)
       Mesh    2
       Max CFL number:  0.75E-01 at (   4,   1,  12)
       Max divergence:  0.20E-04 at (   2,   1,  16)
       Min divergence: -0.24E-04 at (   4,   1,  12)
       Max VN number:   0.27E-03 at (   4,   1,  16)
       Mesh    3
       Max CFL number:  0.10E+00 at (   5,   1,  12)
       Max divergence:  0.37E-04 at (   5,   1,  13)
       Min divergence:  0.26E-06 at (   8,   1,   1)
       Max VN number:   0.27E-03 at (   8,   1,  16)
       Mesh    4
       Max CFL number:  0.38E-01 at (   1,   1,  10)
       Max divergence:  0.13E-04 at (   1,   1,  13)
       Min divergence: -0.84E-06 at (   1,   1,   1)
       Max VN number:   0.27E-03 at (   8,   1,  16)
       Mesh    5
       Max CFL number:  0.28E+00 at (   1,   1,   4)
       Max divergence:  0.12E-03 at (   2,   1,   5)
       Min divergence:  0.17E-04 at (   1,   1,   1)
       Max VN number:   0.27E-03 at (   8,   1,  16)
       Mesh    6
       Max CFL number:  0.16E+00 at (   4,   1,   5)
       Max divergence:  0.81E-04 at (   4,   1,   5)
       Min divergence:  0.27E-05 at (   8,   1,   5)
       Max VN number:   0.27E-03 at (   8,   1,  16)
       Mesh    7
       Max CFL number:  0.38E-01 at (   1,   1,   8)
       Max divergence:  0.23E-04 at (   1,   1,  16)
       Min divergence: -0.97E-07 at (   5,   1,   5)
       Max VN number:   0.27E-03 at (   8,   1,  16)
       Mesh    8
       Max CFL number:  0.21E-01 at (   1,   1,   1)
       Max divergence:  0.84E-05 at (   1,   1,   1)
       Min divergence: -0.45E-06 at (   8,   1,   1)
       Max VN number:   0.27E-03 at (   8,   1,  16)
 
       Time Step       8   July 15, 2020  15:52:25
       Step Size:    0.200E-02 s, Total Time:       0.02 s
       Pressure Iterations:      1
       Maximum Velocity Error:  0.56E-16 on Mesh   1 at (   5   1  17)
       Maximum Pressure Error:  0.40E+04 on Mesh   2 at (   5   1  13)
       ScaRC: iterations    50, residual  0.65E-08, convergence rate   0.61E+00
       ---------------------------------------------------------------
       Mesh    1
       Max CFL number:  0.25E+00 at (   1,   1,  13)
       Max divergence:  0.20E-04 at (   8,   1,  16)
       Min divergence: -0.80E-04 at (   1,   1,  12)
       Max VN number:   0.27E-03 at (   1,   1,  16)
       Mesh    2
       Max CFL number:  0.74E-01 at (   4,   1,  12)
       Max divergence:  0.21E-04 at (   2,   1,  16)
       Min divergence: -0.24E-04 at (   4,   1,  12)
       Max VN number:   0.27E-03 at (   4,   1,  16)
       Mesh    3
       Max CFL number:  0.10E+00 at (   5,   1,  12)
       Max divergence:  0.37E-04 at (   5,   1,  13)
       Min divergence:  0.40E-06 at (   8,   1,   1)
       Max VN number:   0.27E-03 at (   8,   1,  16)
       Mesh    4
       Max CFL number:  0.39E-01 at (   1,   1,  10)
       Max divergence:  0.13E-04 at (   1,   1,  13)
       Min divergence: -0.52E-06 at (   1,   1,   1)
       Max VN number:   0.27E-03 at (   8,   1,  16)
       Mesh    5
       Max CFL number:  0.27E+00 at (   1,   1,   4)
       Max divergence:  0.12E-03 at (   2,   1,   5)
       Min divergence:  0.16E-04 at (   1,   1,   1)
       Max VN number:   0.27E-03 at (   8,   1,  16)
       Mesh    6
       Max CFL number:  0.16E+00 at (   4,   1,   5)
       Max divergence:  0.85E-04 at (   4,   1,   5)
       Min divergence:  0.27E-05 at (   8,   1,   5)
       Max VN number:   0.27E-03 at (   8,   1,  16)
       Mesh    7
       Max CFL number:  0.38E-01 at (   1,   1,   8)
       Max divergence:  0.23E-04 at (   1,   1,  16)
       Min divergence:  0.11E-06 at (   5,   1,   5)
       Max VN number:   0.27E-03 at (   8,   1,  16)
       Mesh    8
       Max CFL number:  0.22E-01 at (   1,   1,   1)
       Max divergence:  0.87E-05 at (   1,   1,   1)
       Min divergence: -0.39E-06 at (   8,   1,   1)
       Max VN number:   0.27E-03 at (   8,   1,  16)
 
       Time Step       9   July 15, 2020  15:52:25
       Step Size:    0.200E-02 s, Total Time:       0.02 s
       Pressure Iterations:      1
       Maximum Velocity Error:  0.56E-16 on Mesh   1 at (   3   1  17)
       Maximum Pressure Error:  0.41E+04 on Mesh   2 at (   5   1  13)
       ScaRC: iterations    50, residual  0.67E-08, convergence rate   0.61E+00
       ---------------------------------------------------------------
       Mesh    1
       Max CFL number:  0.24E+00 at (   1,   1,  13)
       Max divergence:  0.21E-04 at (   8,   1,  16)
       Min divergence: -0.76E-04 at (   1,   1,  12)
       Max VN number:   0.27E-03 at (   1,   1,  16)
       Mesh    2
       Max CFL number:  0.74E-01 at (   4,   1,  12)
       Max divergence:  0.21E-04 at (   2,   1,  16)
       Min divergence: -0.24E-04 at (   4,   1,  12)
       Max VN number:   0.27E-03 at (   4,   1,  16)
       Mesh    3
       Max CFL number:  0.11E+00 at (   5,   1,  12)
       Max divergence:  0.37E-04 at (   5,   1,  13)
       Min divergence:  0.43E-06 at (   8,   1,   1)
       Max VN number:   0.27E-03 at (   8,   1,  16)
       Mesh    4
       Max CFL number:  0.40E-01 at (   1,   1,  10)
       Max divergence:  0.14E-04 at (   1,   1,  13)
       Min divergence: -0.49E-06 at (   1,   1,   1)
       Max VN number:   0.27E-03 at (   8,   1,  16)
       Mesh    5
       Max CFL number:  0.26E+00 at (   1,   1,   4)
       Max divergence:  0.12E-03 at (   2,   1,   5)
       Min divergence:  0.14E-04 at (   1,   1,   1)
       Max VN number:   0.27E-03 at (   8,   1,  16)
       Mesh    6
       Max CFL number:  0.16E+00 at (   4,   1,   5)
       Max divergence:  0.88E-04 at (   4,   1,   5)
       Min divergence:  0.26E-05 at (   8,   1,   5)
       Max VN number:   0.27E-03 at (   8,   1,  16)
       Mesh    7
       Max CFL number:  0.38E-01 at (   1,   1,   8)
       Max divergence:  0.23E-04 at (   1,   1,  16)
       Min divergence:  0.31E-06 at (   5,   1,   5)
       Max VN number:   0.27E-03 at (   8,   1,  16)
       Mesh    8
       Max CFL number:  0.22E-01 at (   1,   1,   1)
       Max divergence:  0.90E-05 at (   1,   1,   1)
       Min divergence: -0.37E-06 at (   8,   1,   1)
       Max VN number:   0.27E-03 at (   8,   1,  16)
 
       Time Step      10   July 15, 2020  15:52:25
       Step Size:    0.200E-02 s, Total Time:       0.02 s
       Pressure Iterations:      1
       Maximum Velocity Error:  0.28E-16 on Mesh   1 at (   9   1   4)
       Maximum Pressure Error:  0.41E+04 on Mesh   2 at (   5   1  13)
       ScaRC: iterations    50, residual  0.68E-08, convergence rate   0.61E+00
       ---------------------------------------------------------------
       Mesh    1
       Max CFL number:  0.24E+00 at (   1,   1,  13)
       Max divergence:  0.21E-04 at (   8,   1,  16)
       Min divergence: -0.74E-04 at (   2,   1,  12)
       Max VN number:   0.27E-03 at (   1,   1,  16)
       Mesh    2
       Max CFL number:  0.73E-01 at (   4,   1,  12)
       Max divergence:  0.22E-04 at (   2,   1,  16)
       Min divergence: -0.24E-04 at (   4,   1,  12)
       Max VN number:   0.27E-03 at (   4,   1,  16)
       Mesh    3
       Max CFL number:  0.11E+00 at (   5,   1,  12)
       Max divergence:  0.37E-04 at (   5,   1,  13)
       Min divergence:  0.49E-06 at (   8,   1,   1)
       Max VN number:   0.27E-03 at (   8,   1,  16)
       Mesh    4
       Max CFL number:  0.41E-01 at (   1,   1,  10)
       Max divergence:  0.14E-04 at (   1,   1,  13)
       Min divergence: -0.25E-06 at (   8,   1,   1)
       Max VN number:   0.27E-03 at (   8,   1,  16)
       Mesh    5
       Max CFL number:  0.26E+00 at (   1,   1,   4)
       Max divergence:  0.12E-03 at (   2,   1,   5)
       Min divergence:  0.13E-04 at (   1,   1,   1)
       Max VN number:   0.27E-03 at (   8,   1,  16)
       Mesh    6
       Max CFL number:  0.16E+00 at (   4,   1,   5)
       Max divergence:  0.91E-04 at (   4,   1,   5)
       Min divergence:  0.26E-05 at (   8,   1,   5)
       Max VN number:   0.27E-03 at (   8,   1,  16)
       Mesh    7
       Max CFL number:  0.38E-01 at (   1,   1,   8)
       Max divergence:  0.24E-04 at (   1,   1,  16)
       Min divergence:  0.51E-06 at (   5,   1,   5)
       Max VN number:   0.27E-03 at (   8,   1,  16)
       Mesh    8
       Max CFL number:  0.23E-01 at (   1,   1,   1)
       Max divergence:  0.94E-05 at (   1,   1,   1)
       Min divergence:  0.30E-07 at (   8,   1,   1)
       Max VN number:   0.27E-03 at (   8,   1,  16)
 
       Time Step      20   July 15, 2020  15:52:25
       Step Size:    0.200E-02 s, Total Time:       0.04 s
       Pressure Iterations:      1
       Maximum Velocity Error:  0.56E-16 on Mesh   1 at (   7   1  17)
       Maximum Pressure Error:  0.45E+04 on Mesh   2 at (   5   1  13)
       ScaRC: iterations    49, residual  0.93E-08, convergence rate   0.60E+00
       ---------------------------------------------------------------
       Mesh    1
       Max CFL number:  0.20E+00 at (   1,   1,  13)
       Max divergence:  0.25E-04 at (   8,   1,  16)
       Min divergence: -0.61E-04 at (   2,   1,  12)
       Max VN number:   0.27E-03 at (   1,   1,  16)
       Mesh    2
       Max CFL number:  0.70E-01 at (   1,   1,  16)
       Max divergence:  0.38E-04 at (   8,   1,   2)
       Min divergence: -0.26E-04 at (   4,   1,  12)
       Max VN number:   0.27E-03 at (   4,   1,  16)
       Mesh    3
       Max CFL number:  0.12E+00 at (   5,   1,  12)
       Max divergence:  0.43E-04 at (   6,   1,  13)
       Min divergence:  0.82E-06 at (   8,   1,   1)
       Max VN number:   0.27E-03 at (   8,   1,  16)
       Mesh    4
       Max CFL number:  0.50E-01 at (   1,   1,   9)
       Max divergence:  0.19E-04 at (   1,   1,  13)
       Min divergence:  0.25E-07 at (   8,   1,   1)
       Max VN number:   0.27E-03 at (   8,   1,  16)
       Mesh    5
       Max CFL number:  0.23E+00 at (   2,   1,   4)
       Max divergence:  0.11E-03 at (   3,   1,   5)
       Min divergence:  0.76E-05 at (   1,   1,   1)
       Max VN number:   0.27E-03 at (   8,   1,  16)
       Mesh    6
       Max CFL number:  0.18E+00 at (   4,   1,   6)
       Max divergence:  0.11E-03 at (   4,   1,   5)
       Min divergence: -0.97E-06 at (   6,   1,   5)
       Max VN number:   0.27E-03 at (   8,   1,  16)
       Mesh    7
       Max CFL number:  0.40E-01 at (   1,   1,   9)
       Max divergence:  0.25E-04 at (   1,   1,  16)
       Min divergence:  0.17E-05 at (   4,   1,   5)
       Max VN number:   0.27E-03 at (   8,   1,  16)
       Mesh    8
       Max CFL number:  0.27E-01 at (   1,   1,   1)
       Max divergence:  0.12E-04 at (   1,   1,   1)
       Min divergence:  0.58E-06 at (   8,   1,  10)
       Max VN number:   0.27E-03 at (   8,   1,  16)
 
       Time Step      30   July 15, 2020  15:52:25
       Step Size:    0.200E-02 s, Total Time:       0.06 s
       Pressure Iterations:      1
       Maximum Velocity Error:  0.14E-16 on Mesh   1 at (   1   1  17)
       Maximum Pressure Error:  0.34E+04 on Mesh   2 at (   5   1  13)
       ScaRC: iterations    50, residual  0.61E-08, convergence rate   0.60E+00
       ---------------------------------------------------------------
       Mesh    1
       Max CFL number:  0.17E+00 at (   1,   1,  13)
       Max divergence:  0.29E-04 at (   8,   1,  16)
       Min divergence: -0.51E-04 at (   3,   1,  12)
       Max VN number:   0.27E-03 at (   1,   1,  16)
       Mesh    2
       Max CFL number:  0.84E-01 at (   8,   1,   2)
       Max divergence:  0.60E-04 at (   7,   1,   2)
       Min divergence: -0.26E-04 at (   4,   1,  12)
       Max VN number:   0.27E-03 at (   4,   1,  16)
       Mesh    3
       Max CFL number:  0.15E+00 at (   6,   1,  12)
       Max divergence:  0.63E-04 at (   1,   1,   2)
       Min divergence:  0.86E-06 at (   8,   1,   1)
       Max VN number:   0.27E-03 at (   8,   1,  16)
       Mesh    4
       Max CFL number:  0.59E-01 at (   1,   1,   5)
       Max divergence:  0.23E-04 at (   1,   1,  13)
       Min divergence:  0.72E-07 at (   8,   1,   1)
       Max VN number:   0.27E-03 at (   8,   1,  16)
       Mesh    5
       Max CFL number:  0.22E+00 at (   3,   1,   4)
       Max divergence:  0.11E-03 at (   3,   1,   5)
       Min divergence:  0.71E-05 at (   1,   1,   6)
       Max VN number:   0.27E-03 at (   8,   1,  16)
       Mesh    6
       Max CFL number:  0.21E+00 at (   4,   1,   6)
       Max divergence:  0.13E-03 at (   4,   1,   6)
       Min divergence: -0.56E-05 at (   6,   1,   5)
       Max VN number:   0.27E-03 at (   8,   1,  16)
       Mesh    7
       Max CFL number:  0.41E-01 at (   1,   1,   9)
       Max divergence:  0.27E-04 at (   1,   1,  16)
       Min divergence:  0.11E-05 at (   1,   1,   5)
       Max VN number:   0.27E-03 at (   8,   1,  16)
       Mesh    8
       Max CFL number:  0.31E-01 at (   1,   1,   1)
       Max divergence:  0.15E-04 at (   1,   1,   1)
       Min divergence:  0.69E-06 at (   8,   1,  16)
       Max VN number:   0.27E-03 at (   8,   1,  16)
 
       Time Step      40   July 15, 2020  15:52:25
       Step Size:    0.200E-02 s, Total Time:       0.08 s
       Pressure Iterations:      1
       Maximum Velocity Error:  0.56E-16 on Mesh   1 at (   3   1  17)
       Maximum Pressure Error:  0.36E+04 on Mesh   2 at (   5   1  13)
       ScaRC: iterations    51, residual  0.62E-08, convergence rate   0.61E+00
       ---------------------------------------------------------------
       Mesh    1
       Max CFL number:  0.16E+00 at (   3,   1,  13)
       Max divergence:  0.32E-04 at (   8,   1,  16)
       Min divergence: -0.41E-04 at (   4,   1,  12)
       Max VN number:   0.27E-03 at (   1,   1,  16)
       Mesh    2
       Max CFL number:  0.11E+00 at (   5,   1,   1)
       Max divergence:  0.79E-04 at (   7,   1,   2)
       Min divergence: -0.25E-04 at (   4,   1,  12)
       Max VN number:   0.27E-03 at (   4,   1,  16)
       Mesh    3
       Max CFL number:  0.17E+00 at (   6,   1,  12)
       Max divergence:  0.82E-04 at (   1,   1,   2)
       Min divergence: -0.55E-06 at (   6,   1,   1)
       Max VN number:   0.27E-03 at (   8,   1,  16)
       Mesh    4
       Max CFL number:  0.71E-01 at (   1,   1,  12)
       Max divergence:  0.28E-04 at (   1,   1,  13)
       Min divergence:  0.11E-06 at (   8,   1,   1)
       Max VN number:   0.27E-03 at (   8,   1,  16)
       Mesh    5
       Max CFL number:  0.21E+00 at (   3,   1,   4)
       Max divergence:  0.11E-03 at (   4,   1,   5)
       Min divergence: -0.19E-04 at (   1,   1,   6)
       Max VN number:   0.27E-03 at (   8,   1,  16)
       Mesh    6
       Max CFL number:  0.20E+00 at (   4,   1,   6)
       Max divergence:  0.14E-03 at (   4,   1,   6)
       Min divergence: -0.86E-05 at (   6,   1,   5)
       Max VN number:   0.27E-03 at (   8,   1,  16)
       Mesh    7
       Max CFL number:  0.42E-01 at (   1,   1,  10)
       Max divergence:  0.28E-04 at (   1,   1,  16)
       Min divergence:  0.25E-06 at (   1,   1,   5)
       Max VN number:   0.27E-03 at (   8,   1,  16)
       Mesh    8
       Max CFL number:  0.34E-01 at (   1,   1,   1)
       Max divergence:  0.17E-04 at (   1,   1,   1)
       Min divergence:  0.76E-06 at (   8,   1,  16)
       Max VN number:   0.27E-03 at (   8,   1,  16)
 
       Time Step      50   July 15, 2020  15:52:25
       Step Size:    0.200E-02 s, Total Time:       0.10 s
       Pressure Iterations:      1
       Maximum Velocity Error:  0.56E-16 on Mesh   1 at (   4   1  17)
       Maximum Pressure Error:  0.38E+04 on Mesh   2 at (   5   1  13)
       ScaRC: iterations    51, residual  0.68E-08, convergence rate   0.61E+00
       ---------------------------------------------------------------
       Mesh    1
       Max CFL number:  0.15E+00 at (   3,   1,  16)
       Max divergence:  0.34E-04 at (   8,   1,  16)
       Min divergence: -0.35E-04 at (   4,   1,  12)
       Max VN number:   0.27E-03 at (   1,   1,  16)
       Mesh    2
       Max CFL number:  0.14E+00 at (   5,   1,   1)
       Max divergence:  0.95E-04 at (   7,   1,   2)
       Min divergence: -0.22E-04 at (   4,   1,  12)
       Max VN number:   0.27E-03 at (   1,   1,  16)
       Mesh    3
       Max CFL number:  0.18E+00 at (   6,   1,  12)
       Max divergence:  0.99E-04 at (   1,   1,   2)
       Min divergence: -0.28E-05 at (   6,   1,   1)
       Max VN number:   0.27E-03 at (   8,   1,  16)
       Mesh    4
       Max CFL number:  0.87E-01 at (   1,   1,  12)
       Max divergence:  0.35E-04 at (   1,   1,  13)
       Min divergence:  0.14E-06 at (   8,   1,   1)
       Max VN number:   0.27E-03 at (   8,   1,  16)
       Mesh    5
       Max CFL number:  0.20E+00 at (   4,   1,   4)
       Max divergence:  0.11E-03 at (   5,   1,   5)
       Min divergence: -0.38E-04 at (   1,   1,   6)
       Max VN number:   0.27E-03 at (   8,   1,  16)
       Mesh    6
       Max CFL number:  0.21E+00 at (   4,   1,   6)
       Max divergence:  0.13E-03 at (   4,   1,   6)
       Min divergence: -0.12E-04 at (   7,   1,   6)
       Max VN number:   0.27E-03 at (   8,   1,  16)
       Mesh    7
       Max CFL number:  0.44E-01 at (   1,   1,  10)
       Max divergence:  0.29E-04 at (   1,   1,  16)
       Min divergence: -0.69E-06 at (   1,   1,   5)
       Max VN number:   0.27E-03 at (   8,   1,  16)
       Mesh    8
       Max CFL number:  0.38E-01 at (   2,   1,   1)
       Max divergence:  0.20E-04 at (   1,   1,   1)
       Min divergence:  0.82E-06 at (   8,   1,  16)
       Max VN number:   0.27E-03 at (   8,   1,  16)
 
       Time Step      60   July 15, 2020  15:52:25
       Step Size:    0.200E-02 s, Total Time:       0.12 s
       Pressure Iterations:      1
       Maximum Velocity Error:  0.11E-15 on Mesh   2 at (   2   1  17)
       Maximum Pressure Error:  0.22E+04 on Mesh   2 at (   5   1  13)
       ScaRC: iterations    51, residual  0.64E-08, convergence rate   0.61E+00
       ---------------------------------------------------------------
       Mesh    1
       Max CFL number:  0.14E+00 at (   4,   1,  16)
       Max divergence:  0.36E-04 at (   8,   1,  16)
       Min divergence: -0.27E-04 at (   5,   1,  12)
       Max VN number:   0.27E-03 at (   1,   1,  16)
       Mesh    2
       Max CFL number:  0.16E+00 at (   5,   1,   1)
       Max divergence:  0.11E-03 at (   7,   1,   2)
       Min divergence: -0.19E-04 at (   4,   1,  12)
       Max VN number:   0.27E-03 at (   1,   1,  16)
       Mesh    3
       Max CFL number:  0.18E+00 at (   6,   1,  12)
       Max divergence:  0.12E-03 at (   1,   1,   2)
       Min divergence: -0.67E-05 at (   7,   1,   2)
       Max VN number:   0.27E-03 at (   5,   1,  16)
       Mesh    4
       Max CFL number:  0.11E+00 at (   1,   1,  12)
       Max divergence:  0.40E-04 at (   1,   1,  13)
       Min divergence: -0.99E-06 at (   1,   1,   1)
       Max VN number:   0.27E-03 at (   8,   1,  16)
       Mesh    5
       Max CFL number:  0.18E+00 at (   4,   1,   4)
       Max divergence:  0.11E-03 at (   5,   1,   6)
       Min divergence: -0.53E-04 at (   1,   1,   6)
       Max VN number:   0.27E-03 at (   8,   1,  16)
       Mesh    6
       Max CFL number:  0.19E+00 at (   4,   1,   6)
       Max divergence:  0.12E-03 at (   4,   1,   6)
       Min divergence: -0.17E-04 at (   7,   1,   6)
       Max VN number:   0.27E-03 at (   8,   1,  16)
       Mesh    7
       Max CFL number:  0.44E-01 at (   1,   1,  10)
       Max divergence:  0.29E-04 at (   1,   1,  16)
       Min divergence: -0.29E-05 at (   1,   1,   6)
       Max VN number:   0.27E-03 at (   8,   1,  16)
       Mesh    8
       Max CFL number:  0.40E-01 at (   2,   1,   1)
       Max divergence:  0.22E-04 at (   1,   1,   1)
       Min divergence:  0.86E-06 at (   8,   1,  16)
       Max VN number:   0.27E-03 at (   8,   1,  16)
 
       Time Step      70   July 15, 2020  15:52:25
       Step Size:    0.200E-02 s, Total Time:       0.14 s
       Pressure Iterations:      1
       Maximum Velocity Error:  0.56E-16 on Mesh   2 at (   9   1   4)
       Maximum Pressure Error:  0.23E+04 on Mesh   2 at (   5   1  13)
       ScaRC: iterations    51, residual  0.66E-08, convergence rate   0.61E+00
       ---------------------------------------------------------------
       Mesh    1
       Max CFL number:  0.13E+00 at (   5,   1,  16)
       Max divergence:  0.37E-04 at (   8,   1,  16)
       Min divergence: -0.22E-04 at (   5,   1,  12)
       Max VN number:   0.27E-03 at (   1,   1,  16)
       Mesh    2
       Max CFL number:  0.17E+00 at (   5,   1,   1)
       Max divergence:  0.13E-03 at (   7,   1,   2)
       Min divergence: -0.14E-04 at (   4,   1,  12)
       Max VN number:   0.27E-03 at (   1,   1,  16)
       Mesh    3
       Max CFL number:  0.19E+00 at (   6,   1,  12)
       Max divergence:  0.14E-03 at (   1,   1,   2)
       Min divergence: -0.14E-04 at (   5,   1,  14)
       Max VN number:   0.27E-03 at (   5,   1,  16)
       Mesh    4
       Max CFL number:  0.13E+00 at (   1,   1,  12)
       Max divergence:  0.47E-04 at (   1,   1,  14)
       Min divergence: -0.46E-05 at (   1,   1,   2)
       Max VN number:   0.27E-03 at (   8,   1,  16)
       Mesh    5
       Max CFL number:  0.18E+00 at (   5,   1,   5)
       Max divergence:  0.11E-03 at (   6,   1,   6)
       Min divergence: -0.63E-04 at (   1,   1,   6)
       Max VN number:   0.27E-03 at (   8,   1,  16)
       Mesh    6
       Max CFL number:  0.19E+00 at (   4,   1,   6)
       Max divergence:  0.12E-03 at (   4,   1,   6)
       Min divergence: -0.21E-04 at (   7,   1,   6)
       Max VN number:   0.27E-03 at (   8,   1,  16)
       Mesh    7
       Max CFL number:  0.44E-01 at (   1,   1,  11)
       Max divergence:  0.28E-04 at (   1,   1,  16)
       Min divergence: -0.56E-05 at (   1,   1,   6)
       Max VN number:   0.27E-03 at (   8,   1,  16)
       Mesh    8
       Max CFL number:  0.43E-01 at (   2,   1,   1)
       Max divergence:  0.25E-04 at (   1,   1,   1)
       Min divergence:  0.90E-06 at (   8,   1,  16)
       Max VN number:   0.27E-03 at (   8,   1,  16)
 
       Time Step      80   July 15, 2020  15:52:25
       Step Size:    0.200E-02 s, Total Time:       0.16 s
       Pressure Iterations:      1
       Maximum Velocity Error:  0.11E-15 on Mesh   1 at (   7   1  17)
       Maximum Pressure Error:  0.16E+04 on Mesh   6 at (   5   1   5)
       ScaRC: iterations    51, residual  0.55E-08, convergence rate   0.61E+00
       ---------------------------------------------------------------
       Mesh    1
       Max CFL number:  0.13E+00 at (   3,   1,  14)
       Max divergence:  0.40E-04 at (   1,   1,  11)
       Min divergence: -0.17E-04 at (   6,   1,  12)
       Max VN number:   0.27E-03 at (   1,   1,  16)
       Mesh    2
       Max CFL number:  0.18E+00 at (   5,   1,   1)
       Max divergence:  0.15E-03 at (   8,   1,   2)
       Min divergence: -0.90E-05 at (   4,   1,  12)
       Max VN number:   0.27E-03 at (   1,   1,  16)
       Mesh    3
       Max CFL number:  0.19E+00 at (   4,   1,   3)
       Max divergence:  0.15E-03 at (   1,   1,   2)
       Min divergence: -0.25E-04 at (   5,   1,  14)
       Max VN number:   0.27E-03 at (   5,   1,  16)
       Mesh    4
       Max CFL number:  0.13E+00 at (   1,   1,  12)
       Max divergence:  0.51E-04 at (   1,   1,  14)
       Min divergence: -0.98E-05 at (   1,   1,   2)
       Max VN number:   0.27E-03 at (   8,   1,  16)
       Mesh    5
       Max CFL number:  0.17E+00 at (   5,   1,   5)
       Max divergence:  0.10E-03 at (   6,   1,   7)
       Min divergence: -0.70E-04 at (   1,   1,   6)
       Max VN number:   0.27E-03 at (   8,   1,  16)
       Mesh    6
       Max CFL number:  0.20E+00 at (   4,   1,   7)
       Max divergence:  0.13E-03 at (   2,   1,   8)
       Min divergence: -0.24E-04 at (   7,   1,   6)
       Max VN number:   0.27E-03 at (   8,   1,  16)
       Mesh    7
       Max CFL number:  0.43E-01 at (   1,   1,  11)
       Max divergence:  0.28E-04 at (   1,   1,  16)
       Min divergence: -0.84E-05 at (   1,   1,   6)
       Max VN number:   0.27E-03 at (   8,   1,  16)
       Mesh    8
       Max CFL number:  0.45E-01 at (   2,   1,   1)
       Max divergence:  0.27E-04 at (   1,   1,   1)
       Min divergence:  0.92E-06 at (   8,   1,  16)
       Max VN number:   0.27E-03 at (   8,   1,  16)
 
       Time Step      90   July 15, 2020  15:52:25
       Step Size:    0.200E-02 s, Total Time:       0.18 s
       Pressure Iterations:      1
       Maximum Velocity Error:  0.14E-16 on Mesh   1 at (   1   1  17)
       Maximum Pressure Error:  0.14E+04 on Mesh   6 at (   5   1   5)
       ScaRC: iterations    50, residual  0.77E-08, convergence rate   0.60E+00
       ---------------------------------------------------------------
       Mesh    1
       Max CFL number:  0.14E+00 at (   3,   1,  14)
       Max divergence:  0.45E-04 at (   2,   1,  12)
       Min divergence: -0.13E-04 at (   6,   1,  12)
       Max VN number:   0.27E-03 at (   1,   1,  16)
       Mesh    2
       Max CFL number:  0.18E+00 at (   5,   1,   1)
       Max divergence:  0.16E-03 at (   8,   1,   2)
       Min divergence: -0.33E-05 at (   4,   1,  12)
       Max VN number:   0.27E-03 at (   1,   1,  16)
       Mesh    3
       Max CFL number:  0.20E+00 at (   7,   1,  12)
       Max divergence:  0.16E-03 at (   1,   1,   2)
       Min divergence: -0.36E-04 at (   5,   1,  14)
       Max VN number:   0.27E-03 at (   5,   1,  16)
       Mesh    4
       Max CFL number:  0.15E+00 at (   1,   1,  10)
       Max divergence:  0.54E-04 at (   1,   1,  14)
       Min divergence: -0.15E-04 at (   1,   1,   2)
       Max VN number:   0.27E-03 at (   8,   1,  16)
       Mesh    5
       Max CFL number:  0.16E+00 at (   5,   1,   5)
       Max divergence:  0.10E-03 at (   6,   1,   7)
       Min divergence: -0.75E-04 at (   1,   1,   6)
       Max VN number:   0.27E-03 at (   1,   1,  16)
       Mesh    6
       Max CFL number:  0.21E+00 at (   4,   1,   7)
       Max divergence:  0.15E-03 at (   4,   1,   6)
       Min divergence: -0.26E-04 at (   7,   1,   6)
       Max VN number:   0.27E-03 at (   8,   1,  16)
       Mesh    7
       Max CFL number:  0.42E-01 at (   1,   1,  11)
       Max divergence:  0.28E-04 at (   8,   1,   1)
       Min divergence: -0.12E-04 at (   1,   1,   7)
       Max VN number:   0.27E-03 at (   8,   1,  16)
       Mesh    8
       Max CFL number:  0.46E-01 at (   3,   1,   1)
       Max divergence:  0.29E-04 at (   1,   1,   1)
       Min divergence:  0.92E-06 at (   8,   1,  16)
       Max VN number:   0.27E-03 at (   8,   1,  16)
 
       Time Step     100   July 15, 2020  15:52:26
       Step Size:    0.200E-02 s, Total Time:       0.20 s
       Pressure Iterations:      1
       Maximum Velocity Error:  0.11E-15 on Mesh   3 at (   9   1   4)
       Maximum Pressure Error:  0.13E+04 on Mesh   3 at (   4   1  12)
       ScaRC: iterations    52, residual  0.44E-08, convergence rate   0.61E+00
       ---------------------------------------------------------------
       Mesh    1
       Max CFL number:  0.13E+00 at (   3,   1,  14)
       Max divergence:  0.56E-04 at (   3,   1,  14)
       Min divergence: -0.81E-05 at (   7,   1,  12)
       Max VN number:   0.27E-03 at (   1,   1,  16)
       Mesh    2
       Max CFL number:  0.19E+00 at (   5,   1,   1)
       Max divergence:  0.17E-03 at (   8,   1,   2)
       Min divergence: -0.45E-05 at (   2,   1,   2)
       Max VN number:   0.27E-03 at (   1,   1,  16)
       Mesh    3
       Max CFL number:  0.22E+00 at (   7,   1,  12)
       Max divergence:  0.17E-03 at (   1,   1,   2)
       Min divergence: -0.46E-04 at (   5,   1,  14)
       Max VN number:   0.27E-03 at (   5,   1,  16)
       Mesh    4
       Max CFL number:  0.17E+00 at (   1,   1,  10)
       Max divergence:  0.57E-04 at (   1,   1,  14)
       Min divergence: -0.21E-04 at (   1,   1,   3)
       Max VN number:   0.27E-03 at (   8,   1,  16)
       Mesh    5
       Max CFL number:  0.15E+00 at (   5,   1,   5)
       Max divergence:  0.96E-04 at (   7,   1,   7)
       Min divergence: -0.78E-04 at (   1,   1,   6)
       Max VN number:   0.27E-03 at (   1,   1,  16)
       Mesh    6
       Max CFL number:  0.21E+00 at (   4,   1,   7)
       Max divergence:  0.15E-03 at (   4,   1,   6)
       Min divergence: -0.28E-04 at (   7,   1,   6)
       Max VN number:   0.27E-03 at (   8,   1,  16)
       Mesh    7
       Max CFL number:  0.41E-01 at (   1,   1,  11)
       Max divergence:  0.29E-04 at (   8,   1,   1)
       Min divergence: -0.16E-04 at (   1,   1,   7)
       Max VN number:   0.27E-03 at (   8,   1,  16)
       Mesh    8
       Max CFL number:  0.48E-01 at (   3,   1,   1)
       Max divergence:  0.31E-04 at (   1,   1,   1)
       Min divergence:  0.92E-06 at (   8,   1,  16)
       Max VN number:   0.27E-03 at (   8,   1,  16)
 
       Time Step     200   July 15, 2020  15:52:26
       Step Size:    0.200E-02 s, Total Time:       0.40 s
       Pressure Iterations:      1
       Maximum Velocity Error:  0.11E-15 on Mesh   1 at (   5   1  17)
       Maximum Pressure Error:  0.32E+04 on Mesh   2 at (   5   1  13)
       ScaRC: iterations    52, residual  0.67E-08, convergence rate   0.60E+00
       ---------------------------------------------------------------
       Mesh    1
       Max CFL number:  0.18E+00 at (   6,   1,  16)
       Max divergence:  0.77E-04 at (   6,   1,  16)
       Min divergence: -0.45E-04 at (   1,   1,  12)
       Max VN number:   0.27E-03 at (   1,   1,  16)
       Mesh    2
       Max CFL number:  0.16E+00 at (   6,   1,   3)
       Max divergence:  0.12E-03 at (   6,   1,   4)
       Min divergence: -0.38E-04 at (   1,   1,   6)
       Max VN number:   0.27E-03 at (   2,   1,  16)
       Mesh    3
       Max CFL number:  0.21E+00 at (   6,   1,   6)
       Max divergence:  0.12E-03 at (   1,   1,   2)
       Min divergence: -0.60E-04 at (   7,   1,  15)
       Max VN number:   0.27E-03 at (   5,   1,  16)
       Mesh    4
       Max CFL number:  0.25E+00 at (   2,   1,  13)
       Max divergence:  0.11E-03 at (   3,   1,  15)
       Min divergence: -0.50E-04 at (   4,   1,   5)
       Max VN number:   0.27E-03 at (   8,   1,  16)
       Mesh    5
       Max CFL number:  0.21E+00 at (   8,   1,   6)
       Max divergence:  0.14E-03 at (   8,   1,   7)
       Min divergence: -0.28E-04 at (   1,   1,   9)
       Max VN number:   0.27E-03 at (   1,   1,  16)
       Mesh    6
       Max CFL number:  0.22E+00 at (   4,   1,   6)
       Max divergence:  0.15E-03 at (   4,   1,  10)
       Min divergence: -0.19E-04 at (   8,   1,   9)
       Max VN number:   0.27E-03 at (   8,   1,  16)
       Mesh    7
       Max CFL number:  0.82E-01 at (   1,   1,  10)
       Max divergence:  0.35E-04 at (   1,   1,  16)
       Min divergence: -0.45E-04 at (   6,   1,   1)
       Max VN number:   0.27E-03 at (   8,   1,  16)
       Mesh    8
       Max CFL number:  0.10E+00 at (   2,   1,   1)
       Max divergence:  0.65E-04 at (   3,   1,   1)
       Min divergence:  0.11E-05 at (   8,   1,  16)
       Max VN number:   0.27E-03 at (   8,   1,  16)
 
       Time Step     250   July 15, 2020  15:52:27
       Step Size:    0.200E-02 s, Total Time:       0.50 s
       Pressure Iterations:      1
       Maximum Velocity Error:  0.11E-15 on Mesh   3 at (   8   1  17)
       Maximum Pressure Error:  0.16E+04 on Mesh   7 at (   4   1   4)
       ScaRC: iterations    52, residual  0.76E-08, convergence rate   0.61E+00
       ---------------------------------------------------------------
       Mesh    1
       Max CFL number:  0.20E+00 at (   1,   1,  13)
       Max divergence:  0.58E-04 at (   8,   1,  16)
       Min divergence: -0.75E-04 at (   5,   1,  11)
       Max VN number:   0.27E-03 at (   1,   1,  16)
       Mesh    2
       Max CFL number:  0.14E+00 at (   7,   1,   5)
       Max divergence:  0.80E-04 at (   7,   1,   6)
       Min divergence: -0.64E-04 at (   2,   1,   7)
       Max VN number:   0.27E-03 at (   2,   1,  16)
       Mesh    3
       Max CFL number:  0.20E+00 at (   8,   1,  12)
       Max divergence:  0.81E-04 at (   5,   1,   5)
       Min divergence: -0.71E-04 at (   6,   1,  13)
       Max VN number:   0.27E-03 at (   5,   1,  16)
       Mesh    4
       Max CFL number:  0.22E+00 at (   4,   1,  14)
       Max divergence:  0.11E-03 at (   5,   1,  16)
       Min divergence: -0.66E-04 at (   5,   1,   6)
       Max VN number:   0.27E-03 at (   3,   1,  16)
       Mesh    5
       Max CFL number:  0.23E+00 at (   8,   1,   9)
       Max divergence:  0.14E-03 at (   8,   1,  10)
       Min divergence: -0.58E-04 at (   1,   1,   6)
       Max VN number:   0.27E-03 at (   1,   1,  16)
       Mesh    6
       Max CFL number:  0.28E+00 at (   4,   1,   9)
       Max divergence:  0.20E-03 at (   4,   1,   8)
       Min divergence: -0.71E-05 at (   6,   1,   6)
       Max VN number:   0.27E-03 at (   8,   1,  16)
       Mesh    7
       Max CFL number:  0.11E+00 at (   1,   1,  14)
       Max divergence:  0.40E-04 at (   1,   1,  16)
       Min divergence: -0.64E-04 at (   7,   1,   1)
       Max VN number:   0.27E-03 at (   8,   1,  16)
       Mesh    8
       Max CFL number:  0.13E+00 at (   4,   1,   1)
       Max divergence:  0.85E-04 at (   5,   1,   1)
       Min divergence: -0.48E-04 at (   1,   1,   1)
       Max VN number:   0.27E-03 at (   8,   1,  16)
 


 Time Stepping Wall Clock Time (s):        2.278
 Total Elapsed Wall Clock Time (s):        4.519

STOP: FDS completed successfully (CHID: pressure_iteration2d_uscarc)
