
 Fire Dynamics Simulator

 Current Date     : June 26, 2020  16:17:45
 Revision         : -AMG
 Revision Date    : Fri Jun 26 15:19:14 2020 +0200
 Compiler         : Intel ifort 19.0.5.281
 Compilation Date : Jun 26, 2020 15:25:32

 MPI Enabled;    Number of MPI Processes:       3
 OpenMP Enabled; Number of OpenMP Threads:      4

 MPI version: 3.1
 MPI library version: Intel(R) MPI Library 2018 Update 1 for Linux* OS


 Job TITLE        : Pressure Rise in a Sealed Tunnel with GLMAT solver
 Job ID string    : pressure_rise_glmat


 Grid Dimensions, Mesh     1

   Cells in the X Direction            20
   Cells in the Y Direction             1
   Cells in the Z Direction            20
   Number of Grid Cells               400


 Physical Dimensions, Mesh     1

   Length (m)                       1.000
   Width  (m)                       0.002
   Height (m)                       1.000
   Initial Time Step (s)            0.079

 Grid Dimensions, Mesh     2

   Cells in the X Direction            20
   Cells in the Y Direction             1
   Cells in the Z Direction            20
   Number of Grid Cells               400


 Physical Dimensions, Mesh     2

   Length (m)                       1.000
   Width  (m)                       0.002
   Height (m)                       1.000
   Initial Time Step (s)            0.079

 Grid Dimensions, Mesh     3

   Cells in the X Direction            20
   Cells in the Y Direction             1
   Cells in the Z Direction            20
   Number of Grid Cells               400


 Physical Dimensions, Mesh     3

   Length (m)                       1.000
   Width  (m)                       0.002
   Height (m)                       1.000
   Initial Time Step (s)            0.079

Total Number of Grid Cells          1200


 Miscellaneous Parameters

   Simulation Start Time (s)          0.0
   Simulation End Time (s)          600.0
   LES Calculation
   Eddy Viscosity:           Deardorff Model (C_DEARDORFF = 0.10)
   Near-wall Eddy Viscosity: Smagorinsky with Van Driest damping (C_SMAGORINSKY = 0.20)
   Turbulent Prandtl Number:         0.50
   Turbulent Schmidt Number:         0.50
   Ambient Temperature (C):         20.00


 Mass Fraction Transformation Matrix to Convert Species Mixtures (Columns) to Primitive Species (Rows)

                         AIR     
   NITROGEN              0.762470
   OXYGEN                0.230997
   CARBON DIOXIDE        0.000591
   WATER VAPOR           0.005941


 Primitive Species Information

   NITROGEN
   Gas Species
   Molecular Weight (g/mol)            28.01340
   Ambient Density (kg/m^3)            1.165
   Enthalpy of Formation (J/kg)        0.00E+00

   OXYGEN
   Gas Species
   Molecular Weight (g/mol)            31.99880
   Ambient Density (kg/m^3)            1.330
   Enthalpy of Formation (J/kg)        0.00E+00

   CARBON DIOXIDE
   Gas Species
   Molecular Weight (g/mol)            44.00950
   Ambient Density (kg/m^3)            1.830
   Enthalpy of Formation (J/kg)       -8.94E+06

   WATER VAPOR
   Gas Species
   Molecular Weight (g/mol)            18.01528
   Ambient Density (kg/m^3)            0.749
   Enthalpy of Formation (J/kg)       -1.34E+07


 Tracked (Lumped) Species Information

   AIR
   Molecular Weight (g/mol)            28.75199
   Ambient Density (kg/m^3)            1.195
   Initial Mass Fraction               1.000
   Enthalpy of Formation (J/kg)     -8.50E+04

   Sub Species                    Mass Fraction     Mole Fraction
   NITROGEN                       7.624701E-01      7.825730E-01
   OXYGEN                         2.309974E-01      2.075589E-01
   CARBON DIOXIDE                 5.914651E-04      3.864120E-04
   WATER VAPOR                    5.940984E-03      9.481679E-03
 
     Viscosity (kg/m/s) Ambient,  293 K:  1.80E-05
                                  500 K:  2.61E-05
                                 1000 K:  4.13E-05
                                 1500 K:  5.37E-05
   Therm. Cond. (W/m/K) Ambient,  293 K:  2.56E-02
                                  500 K:  3.81E-02
                                 1000 K:  6.69E-02
                                 1500 K:  9.25E-02
        Enthalpy (J/kg) Ambient,  293 K: -9.01E+04
                                  500 K:  1.22E+05
                                 1000 K:  6.72E+05
                                 1500 K:  1.27E+06
    Spec. Heat (J/kg/K) Ambient,  293 K:  1.02E+03
                                  500 K:  1.04E+03
                                 1000 K:  1.16E+03
                                 1500 K:  1.23E+03
   Diff. Coeff. (m^2/s) Ambient,  293 K:  1.99E-05
                                  500 K:  4.96E-05
                                 1000 K:  1.58E-04
                                 1500 K:  3.09E-04


 Material Information


 Surface Conditions

   0 INERT

   1 WALL (DEFAULT)

   2 BLOW
     AIR Mass Flux (kg/s/m2)   1.00E-01

   3 OPEN
     Passive Vent to Atmosphere

   4 MIRROR
     Symmetry Plane

   5 INTERPOLATED

   6 PERIODIC

   7 HVAC

   8 MASSLESS TRACER

   9 DROPLET

  10 EVACUATION_OUTFLOW
     Normal Velocity (m/s)         0.000

  11 MASSLESS TARGET

  12 PERIODIC WIND


 Device Coordinates

     1 Coords:      0.500000      0.000000      0.500000, Make: null, ID: Pres 1, Quantity: PRESSURE
     2 Coords:      1.500000      0.000000      0.500000, Make: null, ID: Pres 2, Quantity: PRESSURE
     3 Coords:      2.500000      0.000000      0.500000, Make: null, ID: Pres 3, Quantity: PRESSURE
     4 Coords:      0.500000      0.000000      0.500000, Make: null, ID: Temp 1, Quantity: TEMPERATURE
     5 Coords:      1.500000      0.000000      0.500000, Make: null, ID: Temp 2, Quantity: TEMPERATURE
     6 Coords:      2.500000      0.000000      0.500000, Make: null, ID: Temp 3, Quantity: TEMPERATURE
     7 Coords:      0.500000      0.000000      0.500000, Make: null, ID: Dens 1, Quantity: DENSITY
     8 Coords:      1.500000      0.000000      0.500000, Make: null, ID: Dens 2, Quantity: DENSITY
     9 Coords:      2.500000      0.000000      0.500000, Make: null, ID: Dens 3, Quantity: DENSITY


 Slice File Information, Mesh     1

   Sampling Interval (s)             0.600

   1 Nodes:   0  20   1   1   0  20, Quantity: TEMPERATURE
   2 Nodes:   0  20   1   1   0  20, Quantity: DENSITY
   3 Nodes:   0  20   1   1   0  20, Quantity: PRESSURE
   4 Nodes:   0  20   1   1   0  20, Quantity: H
   5 Nodes:   0  20   1   1   0  20, Quantity: VELOCITY
   6 Nodes:   0  20   1   1   0  20, Quantity: U-VELOCITY
   7 Nodes:   0  20   1   1   0  20, Quantity: W-VELOCITY


 Radiation Model Information

   Number of control angles   60
   Time step increment         2
   Angle increment             4
   Phi band   N_theta Solid angle
     1:       60     0.209
   Using gray gas absorption.
   Mean beam length  0.100 m


 GlMat Information

   Global Pressure solver       : Intel MKL Cluster Sparse Solver
 
 
   Using GLMAT as pressure solver. List of H unknown numbers per proc:
    MPI Process, H unknowns =           0         400 , Peak Factorization Memory Required (MB)=           0

 Run Time Diagnostics

       Time Step       1   June 26, 2020  16:17:46
       Step Size:    0.791E-01 s, Total Time:       0.08 s
       Pressure Iterations:      1
       Maximum Velocity Error:  0.11E-17 on Mesh   1 at (  21   1  16)
       Maximum Pressure Error:  0.19E-10 on Mesh   2 at (   7   1   1)
       ---------------------------------------------------------------
       Mesh    1
       Max CFL number:  0.17E-01 at (   8,   1,   2)
       Max divergence: -0.41E-03 at (  11,   1,  11)
       Min divergence: -0.41E-03 at (   5,   1,   5)
       Max VN number:   0.10E-01 at (  10,   1,   3)
       Mesh    2
       Max CFL number:  0.16E-01 at (   7,   1,   2)
       Max divergence: -0.41E-03 at (   7,   1,   1)
       Min divergence: -0.41E-03 at (   1,   1,  19)
       Max VN number:   0.98E-02 at (  13,   1,  11)
       Mesh    3
       Max CFL number:  0.16E-01 at (   6,   1,   2)
       Max divergence: -0.41E-03 at (  13,   1,   2)
       Min divergence: -0.41E-03 at (  16,   1,  15)
       Max VN number:   0.98E-02 at (  14,   1,   7)
 
       Time Step       2   June 26, 2020  16:17:46
       Step Size:    0.791E-01 s, Total Time:       0.16 s
       Pressure Iterations:      1
       Maximum Velocity Error:  0.13E-17 on Mesh   1 at (  21   1  11)
       Maximum Pressure Error:  0.27E-05 on Mesh   1 at (   1   1  20)
       ---------------------------------------------------------------
       Mesh    1
       Max CFL number:  0.21E-01 at (   1,   1,  11)
       Max divergence: -0.88E-03 at (   5,   1,  12)
       Min divergence: -0.89E-03 at (   1,   1,   1)
       Max VN number:   0.10E-01 at (  10,   1,   3)
       Mesh    2
       Max CFL number:  0.18E-01 at (   3,   1,   6)
       Max divergence: -0.88E-03 at (  11,   1,   3)
       Min divergence: -0.88E-03 at (   1,   1,   1)
       Max VN number:   0.98E-02 at (  13,   1,  11)
       Mesh    3
       Max CFL number:  0.16E-01 at (   5,   1,   2)
       Max divergence: -0.88E-03 at (  16,   1,  11)
       Min divergence: -0.89E-03 at (  20,   1,   1)
       Max VN number:   0.98E-02 at (  14,   1,   7)
 
       Time Step       3   June 26, 2020  16:17:46
       Step Size:    0.791E-01 s, Total Time:       0.24 s
       Pressure Iterations:      1
       Maximum Velocity Error:  0.13E-17 on Mesh   1 at (  21   1   2)
       Maximum Pressure Error:  0.21E-04 on Mesh   1 at (   1   1  20)
       ---------------------------------------------------------------
       Mesh    1
       Max CFL number:  0.31E-01 at (   1,   1,  10)
       Max divergence: -0.13E-02 at (   5,   1,  12)
       Min divergence: -0.13E-02 at (   1,   1,   1)
       Max VN number:   0.10E-01 at (  10,   1,   3)
       Mesh    2
       Max CFL number:  0.19E-01 at (   2,   1,   6)
       Max divergence: -0.13E-02 at (  11,   1,   3)
       Min divergence: -0.13E-02 at (   1,   1,   1)
       Max VN number:   0.97E-02 at (   3,   1,   6)
       Mesh    3
       Max CFL number:  0.17E-01 at (   5,   1,   2)
       Max divergence: -0.13E-02 at (  16,   1,  11)
       Min divergence: -0.13E-02 at (  20,   1,   1)
       Max VN number:   0.98E-02 at (  14,   1,   7)
 
       Time Step       4   June 26, 2020  16:17:46
       Step Size:    0.791E-01 s, Total Time:       0.32 s
       Pressure Iterations:      1
       Maximum Velocity Error:  0.13E-17 on Mesh   1 at (  21   1   1)
       Maximum Pressure Error:  0.62E-04 on Mesh   1 at (   1   1  20)
       ---------------------------------------------------------------
       Mesh    1
       Max CFL number:  0.42E-01 at (   1,   1,  10)
       Max divergence: -0.18E-02 at (   5,   1,   8)
       Min divergence: -0.18E-02 at (   1,   1,   1)
       Max VN number:   0.10E-01 at (  10,   1,   3)
       Mesh    2
       Max CFL number:  0.20E-01 at (   2,   1,   6)
       Max divergence: -0.18E-02 at (  11,   1,  18)
       Min divergence: -0.18E-02 at (   1,   1,  20)
       Max VN number:   0.97E-02 at (   3,   1,   6)
       Mesh    3
       Max CFL number:  0.17E-01 at (   5,   1,   2)
       Max divergence: -0.18E-02 at (  16,   1,  10)
       Min divergence: -0.18E-02 at (  20,   1,   1)
       Max VN number:   0.98E-02 at (  14,   1,   7)
 
       Time Step       5   June 26, 2020  16:17:46
       Step Size:    0.791E-01 s, Total Time:       0.40 s
       Pressure Iterations:      1
       Maximum Velocity Error:  0.17E-17 on Mesh   1 at (  21   1   5)
       Maximum Pressure Error:  0.14E-03 on Mesh   1 at (   1   1  20)
       ---------------------------------------------------------------
       Mesh    1
       Max CFL number:  0.52E-01 at (   1,   1,  10)
       Max divergence: -0.22E-02 at (   5,   1,   8)
       Min divergence: -0.22E-02 at (   1,   1,  20)
       Max VN number:   0.10E-01 at (  10,   1,   3)
       Mesh    2
       Max CFL number:  0.21E-01 at (   2,   1,   6)
       Max divergence: -0.22E-02 at (  11,   1,  18)
       Min divergence: -0.22E-02 at (   1,   1,  20)
       Max VN number:   0.97E-02 at (   3,   1,   6)
       Mesh    3
       Max CFL number:  0.18E-01 at (   5,   1,   2)
       Max divergence: -0.22E-02 at (  16,   1,  10)
       Min divergence: -0.22E-02 at (  20,   1,  20)
       Max VN number:   0.98E-02 at (  14,   1,   7)
 
       Time Step       6   June 26, 2020  16:17:46
       Step Size:    0.791E-01 s, Total Time:       0.47 s
       Pressure Iterations:      1
       Maximum Velocity Error:  0.17E-17 on Mesh   1 at (  21   1   2)
       Maximum Pressure Error:  0.25E-03 on Mesh   1 at (   1   1  20)
       ---------------------------------------------------------------
       Mesh    1
       Max CFL number:  0.63E-01 at (   1,   1,  10)
       Max divergence: -0.27E-02 at (   5,   1,   8)
       Min divergence: -0.27E-02 at (   1,   1,  20)
       Max VN number:   0.10E-01 at (  10,   1,   3)
       Mesh    2
       Max CFL number:  0.23E-01 at (   2,   1,   6)
       Max divergence: -0.27E-02 at (  10,   1,  18)
       Min divergence: -0.27E-02 at (   1,   1,  20)
       Max VN number:   0.97E-02 at (   3,   1,   6)
       Mesh    3
       Max CFL number:  0.18E-01 at (   5,   1,   2)
       Max divergence: -0.27E-02 at (  16,   1,  10)
       Min divergence: -0.27E-02 at (  20,   1,  20)
       Max VN number:   0.97E-02 at (  14,   1,   7)
 
       Time Step       7   June 26, 2020  16:17:46
       Step Size:    0.791E-01 s, Total Time:       0.55 s
       Pressure Iterations:      1
       Maximum Velocity Error:  0.17E-17 on Mesh   1 at (  21   1   3)
       Maximum Pressure Error:  0.41E-03 on Mesh   1 at (   1   1  20)
       ---------------------------------------------------------------
       Mesh    1
       Max CFL number:  0.73E-01 at (   1,   1,  10)
       Max divergence: -0.31E-02 at (   5,   1,   8)
       Min divergence: -0.31E-02 at (   1,   1,  20)
       Max VN number:   0.99E-02 at (  10,   1,   3)
       Mesh    2
       Max CFL number:  0.24E-01 at (   2,   1,   6)
       Max divergence: -0.31E-02 at (  10,   1,  18)
       Min divergence: -0.31E-02 at (  20,   1,  20)
       Max VN number:   0.97E-02 at (   3,   1,   6)
       Mesh    3
       Max CFL number:  0.19E-01 at (   5,   1,   2)
       Max divergence: -0.31E-02 at (  16,   1,  10)
       Min divergence: -0.31E-02 at (  20,   1,  20)
       Max VN number:   0.97E-02 at (  14,   1,   7)
 
       Time Step       8   June 26, 2020  16:17:46
       Step Size:    0.791E-01 s, Total Time:       0.63 s
       Pressure Iterations:      1
       Maximum Velocity Error:  0.26E-17 on Mesh   1 at (  21   1  17)
       Maximum Pressure Error:  0.63E-03 on Mesh   1 at (   1   1  20)
       ---------------------------------------------------------------
       Mesh    1
       Max CFL number:  0.84E-01 at (   1,   1,  10)
       Max divergence: -0.35E-02 at (   5,   1,  13)
       Min divergence: -0.35E-02 at (   1,   1,  20)
       Max VN number:   0.99E-02 at (  10,   1,   3)
       Mesh    2
       Max CFL number:  0.25E-01 at (   2,   1,   6)
       Max divergence: -0.35E-02 at (  10,   1,   3)
       Min divergence: -0.35E-02 at (  20,   1,  20)
       Max VN number:   0.96E-02 at (   3,   1,   6)
       Mesh    3
       Max CFL number:  0.19E-01 at (   5,   1,   2)
       Max divergence: -0.35E-02 at (  16,   1,  12)
       Min divergence: -0.35E-02 at (  20,   1,  20)
       Max VN number:   0.97E-02 at (  14,   1,   7)
 
       Time Step       9   June 26, 2020  16:17:46
       Step Size:    0.791E-01 s, Total Time:       0.71 s
       Pressure Iterations:      1
       Maximum Velocity Error:  0.17E-17 on Mesh   1 at (  21   1   3)
       Maximum Pressure Error:  0.89E-03 on Mesh   1 at (   1   1  20)
       ---------------------------------------------------------------
       Mesh    1
       Max CFL number:  0.94E-01 at (   1,   1,  10)
       Max divergence: -0.39E-02 at (   5,   1,  13)
       Min divergence: -0.40E-02 at (   1,   1,   1)
       Max VN number:   0.99E-02 at (  10,   1,   3)
       Mesh    2
       Max CFL number:  0.26E-01 at (   2,   1,   6)
       Max divergence: -0.39E-02 at (  10,   1,   3)
       Min divergence: -0.39E-02 at (  20,   1,   1)
       Max VN number:   0.96E-02 at (  13,   1,  11)
       Mesh    3
       Max CFL number:  0.20E-01 at (   5,   1,   2)
       Max divergence: -0.39E-02 at (  16,   1,  12)
       Min divergence: -0.40E-02 at (  20,   1,   1)
       Max VN number:   0.97E-02 at (  14,   1,   7)
 
       Time Step      10   June 26, 2020  16:17:46
       Step Size:    0.791E-01 s, Total Time:       0.79 s
       Pressure Iterations:      1
       Maximum Velocity Error:  0.17E-17 on Mesh   1 at (  21   1   1)
       Maximum Pressure Error:  0.13E-02 on Mesh   1 at (   1   1  20)
       ---------------------------------------------------------------
       Mesh    1
       Max CFL number:  0.11E+00 at (   1,   1,  10)
       Max divergence: -0.44E-02 at (   5,   1,   6)
       Min divergence: -0.44E-02 at (   1,   1,   1)
       Max VN number:   0.98E-02 at (  10,   1,   3)
       Mesh    2
       Max CFL number:  0.27E-01 at (   2,   1,   6)
       Max divergence: -0.44E-02 at (  11,   1,   3)
       Min divergence: -0.44E-02 at (  20,   1,   1)
       Max VN number:   0.96E-02 at (  13,   1,  11)
       Mesh    3
       Max CFL number:  0.20E-01 at (   5,   1,   2)
       Max divergence: -0.44E-02 at (  16,   1,  11)
       Min divergence: -0.44E-02 at (  20,   1,   1)
       Max VN number:   0.96E-02 at (  14,   1,   7)
 
       Time Step      20   June 26, 2020  16:17:46
       Step Size:    0.791E-01 s, Total Time:       1.58 s
       Pressure Iterations:      1
       Maximum Velocity Error:  0.17E-17 on Mesh   1 at (  21   1  14)
       Maximum Pressure Error:  0.53E-02 on Mesh   1 at (   1   1  20)
       ---------------------------------------------------------------
       Mesh    1
       Max CFL number:  0.13E+00 at (   1,   1,  10)
       Max divergence: -0.55E-02 at (   1,   1,  12)
       Min divergence: -0.56E-02 at (   1,   1,   1)
       Max VN number:   0.11E-01 at (   2,   1,  12)
       Mesh    2
       Max CFL number:  0.30E-01 at (   4,   1,  18)
       Max divergence: -0.55E-02 at (  11,   1,  18)
       Min divergence: -0.56E-02 at (  20,   1,   1)
       Max VN number:   0.96E-02 at (   2,   1,  10)
       Mesh    3
       Max CFL number:  0.22E-01 at (   3,   1,  18)
       Max divergence: -0.55E-02 at (  16,   1,   4)
       Min divergence: -0.56E-02 at (  20,   1,   1)
       Max VN number:   0.94E-02 at (  14,   1,   7)
 
       Time Step      30   June 26, 2020  16:17:46
       Step Size:    0.791E-01 s, Total Time:       2.37 s
       Pressure Iterations:      1
       Maximum Velocity Error:  0.87E-18 on Mesh   2 at (  21   1   7)
       Maximum Pressure Error:  0.75E-02 on Mesh   1 at (   1   1  20)
       ---------------------------------------------------------------
       Mesh    1
       Max CFL number:  0.13E+00 at (   1,   1,  10)
       Max divergence: -0.55E-02 at (   1,   1,   9)
       Min divergence: -0.56E-02 at (   1,   1,   1)
       Max VN number:   0.12E-01 at (   2,   1,  12)
       Mesh    2
       Max CFL number:  0.29E-01 at (   4,   1,  18)
       Max divergence: -0.55E-02 at (  11,   1,  18)
       Min divergence: -0.56E-02 at (   1,   1,  20)
       Max VN number:   0.96E-02 at (   2,   1,  10)
       Mesh    3
       Max CFL number:  0.22E-01 at (   3,   1,  18)
       Max divergence: -0.55E-02 at (  16,   1,  17)
       Min divergence: -0.56E-02 at (  20,   1,   1)
       Max VN number:   0.92E-02 at (  14,   1,   7)
 
       Time Step      40   June 26, 2020  16:17:46
       Step Size:    0.791E-01 s, Total Time:       3.16 s
       Pressure Iterations:      1
       Maximum Velocity Error:  0.17E-17 on Mesh   1 at (  21   1   6)
       Maximum Pressure Error:  0.87E-02 on Mesh   1 at (   1   1  20)
       ---------------------------------------------------------------
       Mesh    1
       Max CFL number:  0.13E+00 at (   1,   1,  10)
       Max divergence: -0.54E-02 at (   2,   1,  12)
       Min divergence: -0.56E-02 at (   1,   1,   1)
       Max VN number:   0.15E-01 at (   2,   1,   9)
       Mesh    2
       Max CFL number:  0.29E-01 at (   4,   1,   6)
       Max divergence: -0.55E-02 at (  11,   1,  18)
       Min divergence: -0.55E-02 at (   1,   1,  20)
       Max VN number:   0.95E-02 at (   2,   1,  10)
       Mesh    3
       Max CFL number:  0.21E-01 at (   3,   1,  18)
       Max divergence: -0.55E-02 at (  16,   1,   4)
       Min divergence: -0.56E-02 at (  20,   1,   1)
       Max VN number:   0.89E-02 at (  14,   1,   7)
 
       Time Step      50   June 26, 2020  16:17:46
       Step Size:    0.791E-01 s, Total Time:       3.95 s
       Pressure Iterations:      1
       Maximum Velocity Error:  0.17E-17 on Mesh   1 at (  21   1   6)
       Maximum Pressure Error:  0.94E-02 on Mesh   1 at (   1   1   1)
       ---------------------------------------------------------------
       Mesh    1
       Max CFL number:  0.13E+00 at (   1,   1,  11)
       Max divergence: -0.53E-02 at (   2,   1,  12)
       Min divergence: -0.56E-02 at (   1,   1,   1)
       Max VN number:   0.17E-01 at (   2,   1,   9)
       Mesh    2
       Max CFL number:  0.30E-01 at (   4,   1,   6)
       Max divergence: -0.54E-02 at (  11,   1,  17)
       Min divergence: -0.55E-02 at (   1,   1,   1)
       Max VN number:   0.93E-02 at (   4,   1,   6)
       Mesh    3
       Max CFL number:  0.21E-01 at (   3,   1,  18)
       Max divergence: -0.54E-02 at (  16,   1,  17)
       Min divergence: -0.56E-02 at (  20,   1,   1)
       Max VN number:   0.87E-02 at (  14,   1,   6)
 
       Time Step      60   June 26, 2020  16:17:46
       Step Size:    0.791E-01 s, Total Time:       4.74 s
       Pressure Iterations:      1
       Maximum Velocity Error:  0.17E-17 on Mesh   1 at (  21   1   8)
       Maximum Pressure Error:  0.97E-02 on Mesh   1 at (   1   1   1)
       ---------------------------------------------------------------
       Mesh    1
       Max CFL number:  0.13E+00 at (   1,   1,  11)
       Max divergence: -0.53E-02 at (   2,   1,  12)
       Min divergence: -0.55E-02 at (   1,   1,   1)
       Max VN number:   0.16E-01 at (   2,   1,   9)
       Mesh    2
       Max CFL number:  0.30E-01 at (   4,   1,   6)
       Max divergence: -0.54E-02 at (  11,   1,  17)
       Min divergence: -0.55E-02 at (   1,   1,   1)
       Max VN number:   0.91E-02 at (   4,   1,   6)
       Mesh    3
       Max CFL number:  0.21E-01 at (   3,   1,  18)
       Max divergence: -0.54E-02 at (  16,   1,   4)
       Min divergence: -0.55E-02 at (  20,   1,   1)
       Max VN number:   0.85E-02 at (  14,   1,   6)
 
       Time Step      70   June 26, 2020  16:17:47
       Step Size:    0.791E-01 s, Total Time:       5.53 s
       Pressure Iterations:      1
       Maximum Velocity Error:  0.00E+00 on Mesh   1 at (  21   1  12)
       Maximum Pressure Error:  0.98E-02 on Mesh   1 at (   1   1   1)
       ---------------------------------------------------------------
       Mesh    1
       Max CFL number:  0.13E+00 at (   1,   1,  11)
       Max divergence: -0.53E-02 at (   2,   1,  12)
       Min divergence: -0.55E-02 at (   1,   1,   1)
       Max VN number:   0.17E-01 at (   2,   1,  12)
       Mesh    2
       Max CFL number:  0.31E-01 at (   4,   1,   6)
       Max divergence: -0.54E-02 at (  11,   1,  17)
       Min divergence: -0.55E-02 at (   1,   1,   1)
       Max VN number:   0.89E-02 at (   4,   1,   6)
       Mesh    3
       Max CFL number:  0.20E-01 at (   3,   1,  18)
       Max divergence: -0.54E-02 at (  16,   1,   4)
       Min divergence: -0.55E-02 at (  20,   1,   1)
       Max VN number:   0.84E-02 at (  14,   1,   6)
 
       Time Step      80   June 26, 2020  16:17:47
       Step Size:    0.791E-01 s, Total Time:       6.32 s
       Pressure Iterations:      1
       Maximum Velocity Error:  0.35E-17 on Mesh   1 at (  21   1   2)
       Maximum Pressure Error:  0.97E-02 on Mesh   1 at (   1   1   1)
       ---------------------------------------------------------------
       Mesh    1
       Max CFL number:  0.13E+00 at (   1,   1,  11)
       Max divergence: -0.53E-02 at (   2,   1,  12)
       Min divergence: -0.55E-02 at (   1,   1,   1)
       Max VN number:   0.17E-01 at (   2,   1,  12)
       Mesh    2
       Max CFL number:  0.31E-01 at (   4,   1,   6)
       Max divergence: -0.54E-02 at (  11,   1,  17)
       Min divergence: -0.55E-02 at (   1,   1,   1)
       Max VN number:   0.85E-02 at (  14,   1,  11)
       Mesh    3
       Max CFL number:  0.20E-01 at (   3,   1,  18)
       Max divergence: -0.54E-02 at (  16,   1,   4)
       Min divergence: -0.55E-02 at (  20,   1,   1)
       Max VN number:   0.82E-02 at (  14,   1,   6)
 
       Time Step      90   June 26, 2020  16:17:47
       Step Size:    0.791E-01 s, Total Time:       7.12 s
       Pressure Iterations:      1
       Maximum Velocity Error:  0.17E-17 on Mesh   1 at (  21   1   1)
       Maximum Pressure Error:  0.96E-02 on Mesh   1 at (   1   1   1)
       ---------------------------------------------------------------
       Mesh    1
       Max CFL number:  0.13E+00 at (   4,   1,   8)
       Max divergence: -0.52E-02 at (   3,   1,   6)
       Min divergence: -0.55E-02 at (   1,   1,   1)
       Max VN number:   0.18E-01 at (   2,   1,  12)
       Mesh    2
       Max CFL number:  0.31E-01 at (   4,   1,   6)
       Max divergence: -0.53E-02 at (  11,   1,  17)
       Min divergence: -0.54E-02 at (   1,   1,   1)
       Max VN number:   0.84E-02 at (  14,   1,  11)
       Mesh    3
       Max CFL number:  0.19E-01 at (   3,   1,  18)
       Max divergence: -0.53E-02 at (  16,   1,   4)
       Min divergence: -0.55E-02 at (  20,   1,   1)
       Max VN number:   0.83E-02 at (  19,   1,   4)
 
       Time Step     100   June 26, 2020  16:17:47
       Step Size:    0.791E-01 s, Total Time:       7.91 s
       Pressure Iterations:      1
       Maximum Velocity Error:  0.17E-17 on Mesh   1 at (  21   1  11)
       Maximum Pressure Error:  0.94E-02 on Mesh   1 at (   1   1   1)
       ---------------------------------------------------------------
       Mesh    1
       Max CFL number:  0.15E+00 at (   4,   1,   7)
       Max divergence: -0.51E-02 at (   3,   1,   5)
       Min divergence: -0.55E-02 at (   1,   1,   7)
       Max VN number:   0.19E-01 at (   3,   1,  13)
       Mesh    2
       Max CFL number:  0.31E-01 at (   1,   1,   2)
       Max divergence: -0.53E-02 at (  11,   1,  17)
       Min divergence: -0.54E-02 at (   1,   1,   1)
       Max VN number:   0.83E-02 at (  14,   1,  11)
       Mesh    3
       Max CFL number:  0.21E-01 at (  20,   1,  13)
       Max divergence: -0.53E-02 at (  15,   1,   4)
       Min divergence: -0.55E-02 at (  20,   1,   1)
       Max VN number:   0.87E-02 at (  19,   1,   4)
 
       Time Step     200   June 26, 2020  16:17:48
       Step Size:    0.791E-01 s, Total Time:      15.81 s
       Pressure Iterations:      1
       Maximum Velocity Error:  0.69E-17 on Mesh   1 at (  21   1   3)
       Maximum Pressure Error:  0.87E-02 on Mesh   3 at (  20   1   1)
       ---------------------------------------------------------------
       Mesh    1
       Max CFL number:  0.29E+00 at (  16,   1,   1)
       Max divergence: -0.50E-02 at (   4,   1,   8)
       Min divergence: -0.53E-02 at (   2,   1,  13)
       Max VN number:   0.25E-01 at (   6,   1,   5)
       Mesh    2
       Max CFL number:  0.11E+00 at (   1,   1,   1)
       Max divergence: -0.51E-02 at (  12,   1,   5)
       Min divergence: -0.52E-02 at (  13,   1,  20)
       Max VN number:   0.81E-02 at (  18,   1,  19)
       Mesh    3
       Max CFL number:  0.75E-01 at (  20,   1,   9)
       Max divergence: -0.51E-02 at (  16,   1,  16)
       Min divergence: -0.52E-02 at (  20,   1,   1)
       Max VN number:   0.14E-01 at (  19,   1,   8)
 
       Time Step     300   June 26, 2020  16:17:49
       Step Size:    0.791E-01 s, Total Time:      23.72 s
       Pressure Iterations:      1
       Maximum Velocity Error:  0.69E-17 on Mesh   1 at (  21   1   5)
       Maximum Pressure Error:  0.63E-02 on Mesh   1 at (   2   1  20)
       ---------------------------------------------------------------
       Mesh    1
       Max CFL number:  0.35E+00 at (  20,   1,   1)
       Max divergence: -0.47E-02 at (   2,   1,  11)
       Min divergence: -0.51E-02 at (   2,   1,  13)
       Max VN number:   0.31E-01 at (  20,   1,   1)
       Mesh    2
       Max CFL number:  0.36E+00 at (   1,   1,   1)
       Max divergence: -0.48E-02 at (   6,   1,   1)
       Min divergence: -0.50E-02 at (   5,   1,   2)
       Max VN number:   0.33E-01 at (   4,   1,   1)
       Mesh    3
       Max CFL number:  0.14E+00 at (  17,   1,   1)
       Max divergence: -0.49E-02 at (   4,   1,  19)
       Min divergence: -0.50E-02 at (   5,   1,  20)
       Max VN number:   0.18E-01 at (  18,   1,  19)
 
       Time Step     400   June 26, 2020  16:17:51
       Step Size:    0.791E-01 s, Total Time:      31.62 s
       Pressure Iterations:      1
       Maximum Velocity Error:  0.28E-16 on Mesh   1 at (  21   1   1)
       Maximum Pressure Error:  0.81E-02 on Mesh   3 at (  20   1  20)
       ---------------------------------------------------------------
       Mesh    1
       Max CFL number:  0.33E+00 at (  17,   1,   1)
       Max divergence: -0.45E-02 at (   2,   1,  11)
       Min divergence: -0.49E-02 at (   2,   1,  13)
       Max VN number:   0.28E-01 at (   5,   1,  19)
       Mesh    2
       Max CFL number:  0.33E+00 at (  11,   1,   1)
       Max divergence: -0.46E-02 at (  10,   1,   1)
       Min divergence: -0.48E-02 at (   5,   1,   3)
       Max VN number:   0.30E-01 at (  11,   1,   1)
       Mesh    3
       Max CFL number:  0.16E+00 at (   2,   1,   4)
       Max divergence: -0.46E-02 at (  10,   1,  18)
       Min divergence: -0.49E-02 at (  20,   1,  20)
       Max VN number:   0.26E-01 at (   3,   1,  19)
 
       Time Step     500   June 26, 2020  16:17:51
       Step Size:    0.791E-01 s, Total Time:      39.53 s
       Pressure Iterations:      1
       Maximum Velocity Error:  0.28E-16 on Mesh   1 at (  21   1   1)
       Maximum Pressure Error:  0.79E-02 on Mesh   3 at (  20   1  20)
       ---------------------------------------------------------------
       Mesh    1
       Max CFL number:  0.32E+00 at (  18,   1,   1)
       Max divergence: -0.43E-02 at (   2,   1,  11)
       Min divergence: -0.48E-02 at (   2,   1,  13)
       Max VN number:   0.30E-01 at (   2,   1,  12)
       Mesh    2
       Max CFL number:  0.31E+00 at (  13,   1,   1)
       Max divergence: -0.45E-02 at (   7,   1,   1)
       Min divergence: -0.47E-02 at (   5,   1,  20)
       Max VN number:   0.26E-01 at (  13,   1,   1)
       Mesh    3
       Max CFL number:  0.28E+00 at (   1,   1,   1)
       Max divergence: -0.45E-02 at (   1,   1,   1)
       Min divergence: -0.47E-02 at (  20,   1,  20)
       Max VN number:   0.26E-01 at (  17,   1,  19)
 
       Time Step     600   June 26, 2020  16:17:52
       Step Size:    0.791E-01 s, Total Time:      47.43 s
       Pressure Iterations:      1
       Maximum Velocity Error:  0.69E-17 on Mesh   2 at (  21   1   6)
       Maximum Pressure Error:  0.88E-02 on Mesh   3 at (  20   1  20)
       ---------------------------------------------------------------
       Mesh    1
       Max CFL number:  0.32E+00 at (  18,   1,   1)
       Max divergence: -0.42E-02 at (   2,   1,  11)
       Min divergence: -0.46E-02 at (   2,   1,  13)
       Max VN number:   0.29E-01 at (   2,   1,  12)
       Mesh    2
       Max CFL number:  0.30E+00 at (   1,   1,   1)
       Max divergence: -0.43E-02 at (  19,   1,  20)
       Min divergence: -0.45E-02 at (   7,   1,  20)
       Max VN number:   0.25E-01 at (   8,   1,   1)
       Mesh    3
       Max CFL number:  0.25E+00 at (   4,   1,   1)
       Max divergence: -0.43E-02 at (  16,   1,   3)
       Min divergence: -0.46E-02 at (  20,   1,  20)
       Max VN number:   0.36E-01 at (  19,   1,  14)
 
       Time Step     700   June 26, 2020  16:17:53
       Step Size:    0.791E-01 s, Total Time:      55.34 s
       Pressure Iterations:      1
       Maximum Velocity Error:  0.28E-16 on Mesh   2 at (  21   1   1)
       Maximum Pressure Error:  0.79E-02 on Mesh   3 at (  20   1  20)
       ---------------------------------------------------------------
       Mesh    1
       Max CFL number:  0.32E+00 at (  12,   1,   1)
       Max divergence: -0.40E-02 at (   2,   1,  11)
       Min divergence: -0.44E-02 at (   2,   1,  13)
       Max VN number:   0.29E-01 at (   2,   1,  13)
       Mesh    2
       Max CFL number:  0.31E+00 at (   4,   1,   1)
       Max divergence: -0.41E-02 at (   3,   1,   1)
       Min divergence: -0.44E-02 at (   3,   1,   2)
       Max VN number:   0.23E-01 at (   1,   1,   1)
       Mesh    3
       Max CFL number:  0.28E+00 at (   4,   1,   1)
       Max divergence: -0.42E-02 at (  19,   1,   2)
       Min divergence: -0.44E-02 at (  20,   1,  20)
       Max VN number:   0.29E-01 at (  19,   1,  13)
 
       Time Step     800   June 26, 2020  16:17:53
       Step Size:    0.791E-01 s, Total Time:      63.25 s
       Pressure Iterations:      1
       Maximum Velocity Error:  0.35E-17 on Mesh   1 at (  21   1   6)
       Maximum Pressure Error:  0.22E-03 on Mesh   1 at (   1   1  10)
       ---------------------------------------------------------------
       Mesh    1
       Max CFL number:  0.30E+00 at (  13,   1,   1)
       Max divergence:  0.18E-03 at (   4,   1,   7)
       Min divergence: -0.11E-03 at (   4,   1,   9)
       Max VN number:   0.26E-01 at (  14,   1,   1)
       Mesh    2
       Max CFL number:  0.30E+00 at (   6,   1,   1)
       Max divergence:  0.14E-03 at (   6,   1,   1)
       Min divergence: -0.13E-03 at (   1,   1,   3)
       Max VN number:   0.24E-01 at (  19,   1,   4)
       Mesh    3
       Max CFL number:  0.24E+00 at (   6,   1,   1)
       Max divergence:  0.91E-04 at (   6,   1,   1)
       Min divergence: -0.58E-04 at (   1,   1,  20)
       Max VN number:   0.24E-01 at (  17,   1,  12)
 
       Time Step     900   June 26, 2020  16:17:54
       Step Size:    0.791E-01 s, Total Time:      71.15 s
       Pressure Iterations:      1
       Maximum Velocity Error:  0.14E-16 on Mesh   2 at (  21   1   1)
       Maximum Pressure Error:  0.26E-03 on Mesh   3 at (   3   1   1)
       ---------------------------------------------------------------
       Mesh    1
       Max CFL number:  0.23E+00 at (   1,   1,   4)
       Max divergence:  0.21E-03 at (   3,   1,   5)
       Min divergence: -0.16E-03 at (   3,   1,   7)
       Max VN number:   0.28E-01 at (   3,   1,   6)
       Mesh    2
       Max CFL number:  0.24E+00 at (   4,   1,   1)
       Max divergence:  0.91E-04 at (   2,   1,   1)
       Min divergence: -0.58E-04 at (   1,   1,   2)
       Max VN number:   0.25E-01 at (  20,   1,  19)
       Mesh    3
       Max CFL number:  0.25E+00 at (   5,   1,   1)
       Max divergence:  0.89E-04 at (   4,   1,   1)
       Min divergence: -0.51E-04 at (  11,   1,  17)
       Max VN number:   0.20E-01 at (   5,   1,   1)
 
       Time Step    1000   June 26, 2020  16:17:54
       Step Size:    0.791E-01 s, Total Time:      79.06 s
       Pressure Iterations:      1
       Maximum Velocity Error:  0.14E-16 on Mesh   2 at (  21   1  10)
       Maximum Pressure Error:  0.13E-03 on Mesh   1 at (   3   1   1)
       ---------------------------------------------------------------
       Mesh    1
       Max CFL number:  0.17E+00 at (  20,   1,   5)
       Max divergence:  0.17E-03 at (   2,   1,   7)
       Min divergence: -0.13E-03 at (   3,   1,   4)
       Max VN number:   0.31E-01 at (   2,   1,   3)
       Mesh    2
       Max CFL number:  0.22E+00 at (  20,   1,   1)
       Max divergence:  0.72E-04 at (   6,   1,  10)
       Min divergence: -0.79E-04 at (   6,   1,  11)
       Max VN number:   0.17E-01 at (  18,   1,  19)
       Mesh    3
       Max CFL number:  0.22E+00 at (   1,   1,   1)
       Max divergence:  0.38E-04 at (  20,   1,   1)
       Min divergence: -0.47E-04 at (   5,   1,  15)
       Max VN number:   0.18E-01 at (   8,   1,   2)
 
       Time Step    1100   June 26, 2020  16:17:55
       Step Size:    0.791E-01 s, Total Time:      86.96 s
       Pressure Iterations:      1
       Maximum Velocity Error:  0.14E-16 on Mesh   1 at (  21   1   9)
       Maximum Pressure Error:  0.82E-04 on Mesh   3 at (  13   1  20)
       ---------------------------------------------------------------
       Mesh    1
       Max CFL number:  0.19E+00 at (  20,   1,   6)
       Max divergence:  0.73E-04 at (   1,   1,   3)
       Min divergence: -0.79E-04 at (   3,   1,   4)
       Max VN number:   0.30E-01 at (   2,   1,   2)
       Mesh    2
       Max CFL number:  0.20E+00 at (   3,   1,   6)
       Max divergence:  0.57E-04 at (  20,   1,  12)
       Min divergence: -0.67E-04 at (  18,   1,  12)
       Max VN number:   0.19E-01 at (   6,   1,  12)
       Mesh    3
       Max CFL number:  0.19E+00 at (   4,   1,   5)
       Max divergence:  0.64E-04 at (   3,   1,  13)
       Min divergence: -0.68E-04 at (   4,   1,  15)
       Max VN number:   0.19E-01 at (   4,   1,  15)
 
       Time Step    1200   June 26, 2020  16:17:56
       Step Size:    0.791E-01 s, Total Time:      94.87 s
       Pressure Iterations:      1
       Maximum Velocity Error:  0.69E-17 on Mesh   1 at (  21   1   5)
       Maximum Pressure Error:  0.10E-03 on Mesh   3 at (   7   1   1)
       ---------------------------------------------------------------
       Mesh    1
       Max CFL number:  0.17E+00 at (  19,   1,   1)
       Max divergence:  0.39E-04 at (   1,   1,   1)
       Min divergence: -0.31E-04 at (  19,   1,  10)
       Max VN number:   0.23E-01 at (   3,   1,   3)
       Mesh    2
       Max CFL number:  0.18E+00 at (  20,   1,   4)
       Max divergence:  0.95E-04 at (  18,   1,  13)
       Min divergence: -0.61E-04 at (  16,   1,  12)
       Max VN number:   0.20E-01 at (  18,   1,  13)
       Mesh    3
       Max CFL number:  0.17E+00 at (   1,   1,   4)
       Max divergence:  0.61E-04 at (  18,   1,   6)
       Min divergence: -0.52E-04 at (  18,   1,   7)
       Max VN number:   0.16E-01 at (  18,   1,  10)
 
       Time Step    1300   June 26, 2020  16:17:56
       Step Size:    0.791E-01 s, Total Time:     102.77 s
       Pressure Iterations:      1
       Maximum Velocity Error:  0.35E-17 on Mesh   1 at (  21   1  12)
       Maximum Pressure Error:  0.98E-04 on Mesh   3 at (   1   1   1)
       ---------------------------------------------------------------
       Mesh    1
       Max CFL number:  0.20E+00 at (  20,   1,   1)
       Max divergence:  0.19E-04 at (  20,   1,  11)
       Min divergence: -0.29E-04 at (  19,   1,  12)
       Max VN number:   0.18E-01 at (   6,   1,   3)
       Mesh    2
       Max CFL number:  0.20E+00 at (   1,   1,   1)
       Max divergence:  0.39E-04 at (  17,   1,   1)
       Min divergence: -0.44E-04 at (   9,   1,  11)
       Max VN number:   0.20E-01 at (  12,   1,   2)
       Mesh    3
       Max CFL number:  0.13E+00 at (   1,   1,   8)
       Max divergence:  0.42E-04 at (   3,   1,  14)
       Min divergence: -0.34E-04 at (  15,   1,   7)
       Max VN number:   0.17E-01 at (   1,   1,  12)
 
       Time Step    1400   June 26, 2020  16:17:57
       Step Size:    0.791E-01 s, Total Time:     110.68 s
       Pressure Iterations:      1
       Maximum Velocity Error:  0.69E-17 on Mesh   1 at (  21   1   5)
       Maximum Pressure Error:  0.71E-04 on Mesh   2 at (   9   1   1)
       ---------------------------------------------------------------
       Mesh    1
       Max CFL number:  0.17E+00 at (  20,   1,   1)
       Max divergence:  0.16E-04 at (   8,   1,  18)
       Min divergence: -0.32E-04 at (   2,   1,  20)
       Max VN number:   0.15E-01 at (   5,   1,   3)
       Mesh    2
       Max CFL number:  0.21E+00 at (   3,   1,   1)
       Max divergence:  0.60E-04 at (  13,   1,   6)
       Min divergence: -0.42E-04 at (  13,   1,   9)
       Max VN number:   0.23E-01 at (  14,   1,   5)
       Mesh    3
       Max CFL number:  0.99E-01 at (   1,   1,  17)
       Max divergence:  0.29E-04 at (  20,   1,   6)
       Min divergence: -0.37E-04 at (  19,   1,   7)
       Max VN number:   0.17E-01 at (  11,   1,  15)
 
       Time Step    1500   June 26, 2020  16:17:57
       Step Size:    0.791E-01 s, Total Time:     118.59 s
       Pressure Iterations:      1
       Maximum Velocity Error:  0.14E-16 on Mesh   1 at (  21   1   4)
       Maximum Pressure Error:  0.44E-04 on Mesh   2 at (   2   1   1)
       ---------------------------------------------------------------
       Mesh    1
       Max CFL number:  0.11E+00 at (  20,   1,   5)
       Max divergence:  0.25E-04 at (  10,   1,  17)
       Min divergence: -0.19E-04 at (  11,   1,  18)
       Max VN number:   0.16E-01 at (  11,   1,  19)
       Mesh    2
       Max CFL number:  0.17E+00 at (   5,   1,   1)
       Max divergence:  0.37E-04 at (   9,   1,   8)
       Min divergence: -0.49E-04 at (   9,   1,   9)
       Max VN number:   0.22E-01 at (   9,   1,   9)
       Mesh    3
       Max CFL number:  0.87E-01 at (   2,   1,   1)
       Max divergence:  0.31E-04 at (  20,   1,   5)
       Min divergence: -0.30E-04 at (   8,   1,   8)
       Max VN number:   0.15E-01 at (  13,   1,  14)
 
       Time Step    1600   June 26, 2020  16:17:58
       Step Size:    0.791E-01 s, Total Time:     126.49 s
       Pressure Iterations:      1
       Maximum Velocity Error:  0.14E-16 on Mesh   2 at (   0   1   9)
       Maximum Pressure Error:  0.34E-04 on Mesh   2 at (   4   1   1)
       ---------------------------------------------------------------
       Mesh    1
       Max CFL number:  0.12E+00 at (  20,   1,  10)
       Max divergence:  0.23E-04 at (  13,   1,  16)
       Min divergence: -0.26E-04 at (  19,   1,  10)
       Max VN number:   0.17E-01 at (   8,   1,  19)
       Mesh    2
       Max CFL number:  0.15E+00 at (   6,   1,   3)
       Max divergence:  0.27E-04 at (  10,   1,   8)
       Min divergence: -0.16E-04 at (   3,   1,  10)
       Max VN number:   0.17E-01 at (  12,   1,   6)
       Mesh    3
       Max CFL number:  0.95E-01 at (   1,   1,   1)
       Max divergence:  0.36E-04 at (  19,   1,   5)
       Min divergence: -0.30E-04 at (  19,   1,   6)
       Max VN number:   0.13E-01 at (  16,   1,  14)
 
       Time Step    1700   June 26, 2020  16:17:59
       Step Size:    0.791E-01 s, Total Time:     134.40 s
       Pressure Iterations:      1
       Maximum Velocity Error:  0.69E-17 on Mesh   2 at (   0   1   8)
       Maximum Pressure Error:  0.46E-04 on Mesh   2 at (  14   1   1)
       ---------------------------------------------------------------
       Mesh    1
       Max CFL number:  0.10E+00 at (  11,   1,   1)
       Max divergence:  0.24E-04 at (   3,   1,  18)
       Min divergence: -0.35E-04 at (   4,   1,  19)
       Max VN number:   0.18E-01 at (   4,   1,  19)
       Mesh    2
       Max CFL number:  0.18E+00 at (   8,   1,   1)
       Max divergence:  0.17E-04 at (   2,   1,  18)
       Min divergence: -0.14E-04 at (  19,   1,  20)
       Max VN number:   0.14E-01 at (  12,   1,   2)
       Mesh    3
       Max CFL number:  0.92E-01 at (   5,   1,   1)
       Max divergence:  0.25E-04 at (  19,   1,   6)
       Min divergence: -0.28E-04 at (  16,   1,   9)
       Max VN number:   0.12E-01 at (  19,   1,  17)
 
       Time Step    1800   June 26, 2020  16:18:00
       Step Size:    0.791E-01 s, Total Time:     142.30 s
       Pressure Iterations:      1
       Maximum Velocity Error:  0.69E-17 on Mesh   1 at (  21   1   6)
       Maximum Pressure Error:  0.21E-04 on Mesh   2 at (  19   1   1)
       ---------------------------------------------------------------
       Mesh    1
       Max CFL number:  0.97E-01 at (  20,   1,  20)
       Max divergence:  0.13E-04 at (  17,   1,   6)
       Min divergence: -0.15E-04 at (  19,   1,  20)
       Max VN number:   0.14E-01 at (  18,   1,  10)
       Mesh    2
       Max CFL number:  0.14E+00 at (  17,   1,   6)
       Max divergence:  0.13E-04 at (  17,   1,  13)
       Min divergence: -0.14E-04 at (  19,   1,  14)
       Max VN number:   0.13E-01 at (  17,   1,   7)
       Mesh    3
       Max CFL number:  0.89E-01 at (   9,   1,   1)
       Max divergence:  0.27E-04 at (  20,   1,   1)
       Min divergence: -0.26E-04 at (  19,   1,  10)
       Max VN number:   0.14E-01 at (  19,   1,   2)
 
       Time Step    1900   June 26, 2020  16:18:00
       Step Size:    0.791E-01 s, Total Time:     150.21 s
       Pressure Iterations:      1
       Maximum Velocity Error:  0.35E-17 on Mesh   1 at (  21   1  12)
       Maximum Pressure Error:  0.14E-04 on Mesh   3 at (  20   1   1)
       ---------------------------------------------------------------
       Mesh    1
       Max CFL number:  0.96E-01 at (  19,   1,  20)
       Max divergence:  0.11E-04 at (  18,   1,   3)
       Min divergence: -0.12E-04 at (  13,   1,  20)
       Max VN number:   0.12E-01 at (  20,   1,   3)
       Mesh    2
       Max CFL number:  0.12E+00 at (  17,   1,   6)
       Max divergence:  0.20E-04 at (  19,   1,  13)
       Min divergence: -0.17E-04 at (  15,   1,   7)
       Max VN number:   0.13E-01 at (  19,   1,  13)
       Mesh    3
       Max CFL number:  0.10E+00 at (   1,   1,   8)
       Max divergence:  0.25E-04 at (  20,   1,   1)
       Min divergence: -0.23E-04 at (  19,   1,  11)
       Max VN number:   0.16E-01 at (   2,   1,  12)
 
       Time Step    2000   June 26, 2020  16:18:01
       Step Size:    0.791E-01 s, Total Time:     158.11 s
       Pressure Iterations:      1
       Maximum Velocity Error:  0.69E-17 on Mesh   2 at (  21   1  20)
       Maximum Pressure Error:  0.80E-05 on Mesh   2 at (   2   1  20)
       ---------------------------------------------------------------
       Mesh    1
       Max CFL number:  0.10E+00 at (  20,   1,   8)
       Max divergence:  0.82E-05 at (  11,   1,   5)
       Min divergence: -0.98E-05 at (   1,   1,  16)
       Max VN number:   0.13E-01 at (  17,   1,  15)
       Mesh    2
       Max CFL number:  0.12E+00 at (  20,   1,   8)
       Max divergence:  0.15E-04 at (  14,   1,  10)
       Min divergence: -0.12E-04 at (  12,   1,  10)
       Max VN number:   0.12E-01 at (  13,   1,   9)
       Mesh    3
       Max CFL number:  0.13E+00 at (   1,   1,   8)
       Max divergence:  0.22E-04 at (  20,   1,   1)
       Min divergence: -0.18E-04 at (  18,   1,  12)
       Max VN number:   0.13E-01 at (   6,   1,  13)
 
       Time Step    2100   June 26, 2020  16:18:02
       Step Size:    0.791E-01 s, Total Time:     166.02 s
       Pressure Iterations:      1
       Maximum Velocity Error:  0.69E-17 on Mesh   1 at (  21   1  15)
       Maximum Pressure Error:  0.61E-05 on Mesh   3 at (   7   1  20)
       ---------------------------------------------------------------
       Mesh    1
       Max CFL number:  0.10E+00 at (  20,   1,   6)
       Max divergence:  0.75E-05 at (  20,   1,   1)
       Min divergence: -0.83E-05 at (  13,   1,  20)
       Max VN number:   0.13E-01 at (  12,   1,  15)
       Mesh    2
       Max CFL number:  0.12E+00 at (   6,   1,   6)
       Max divergence:  0.84E-05 at (   8,   1,  14)
       Min divergence: -0.12E-04 at (   1,   1,  11)
       Max VN number:   0.10E-01 at (  16,   1,   4)
       Mesh    3
       Max CFL number:  0.12E+00 at (   6,   1,  11)
       Max divergence:  0.20E-04 at (  16,   1,  12)
       Min divergence: -0.20E-04 at (  20,   1,  12)
       Max VN number:   0.15E-01 at (   7,   1,  12)
 
       Time Step    2200   June 26, 2020  16:18:03
       Step Size:    0.791E-01 s, Total Time:     173.93 s
       Pressure Iterations:      1
       Maximum Velocity Error:  0.69E-17 on Mesh   1 at (  21   1  20)
       Maximum Pressure Error:  0.53E-05 on Mesh   3 at (   8   1  20)
       ---------------------------------------------------------------
       Mesh    1
       Max CFL number:  0.86E-01 at (  12,   1,   9)
       Max divergence:  0.63E-05 at (  20,   1,   1)
       Min divergence: -0.70E-05 at (  20,   1,  20)
       Max VN number:   0.11E-01 at (   6,   1,  14)
       Mesh    2
       Max CFL number:  0.99E-01 at (   7,   1,   5)
       Max divergence:  0.15E-04 at (  20,   1,   1)
       Min divergence: -0.96E-05 at (   9,   1,   9)
       Max VN number:   0.10E-01 at (  11,   1,   8)
       Mesh    3
       Max CFL number:  0.12E+00 at (  10,   1,  13)
       Max divergence:  0.16E-04 at (  20,   1,   1)
       Min divergence: -0.16E-04 at (  20,   1,  13)
       Max VN number:   0.15E-01 at (  12,   1,  13)
 
       Time Step    2300   June 26, 2020  16:18:03
       Step Size:    0.791E-01 s, Total Time:     181.83 s
       Pressure Iterations:      1
       Maximum Velocity Error:  0.69E-17 on Mesh   2 at (  21   1  10)
       Maximum Pressure Error:  0.80E-05 on Mesh   3 at (  20   1  15)
       ---------------------------------------------------------------
       Mesh    1
       Max CFL number:  0.82E-01 at (  13,   1,   7)
       Max divergence:  0.71E-05 at (   1,   1,   7)
       Min divergence: -0.77E-05 at (  16,   1,  20)
       Max VN number:   0.84E-02 at (  20,   1,  11)
       Mesh    2
       Max CFL number:  0.75E-01 at (  19,   1,   9)
       Max divergence:  0.10E-04 at (  17,   1,   1)
       Min divergence: -0.81E-05 at (   3,   1,  20)
       Max VN number:   0.11E-01 at (   1,   1,  11)
       Mesh    3
       Max CFL number:  0.10E+00 at (  16,   1,  14)
       Max divergence:  0.13E-04 at (  20,   1,   1)
       Min divergence: -0.16E-04 at (  15,   1,  18)
       Max VN number:   0.13E-01 at (  17,   1,  13)
 
       Time Step    2400   June 26, 2020  16:18:04
       Step Size:    0.791E-01 s, Total Time:     189.74 s
       Pressure Iterations:      1
       Maximum Velocity Error:  0.69E-17 on Mesh   2 at (  21   1   1)
       Maximum Pressure Error:  0.80E-05 on Mesh   3 at (  20   1  20)
       ---------------------------------------------------------------
       Mesh    1
       Max CFL number:  0.68E-01 at (  14,   1,   7)
       Max divergence:  0.81E-05 at (   3,   1,   5)
       Min divergence: -0.80E-05 at (   3,   1,   7)
       Max VN number:   0.97E-02 at (   9,   1,   5)
       Mesh    2
       Max CFL number:  0.84E-01 at (  20,   1,   2)
       Max divergence:  0.76E-05 at (  19,   1,   1)
       Min divergence: -0.81E-05 at (   2,   1,  20)
       Max VN number:   0.11E-01 at (  16,   1,   3)
       Mesh    3
       Max CFL number:  0.94E-01 at (  19,   1,   7)
       Max divergence:  0.12E-04 at (  17,   1,   1)
       Min divergence: -0.16E-04 at (  20,   1,  20)
       Max VN number:   0.16E-01 at (  17,   1,  16)
 
       Time Step    2500   June 26, 2020  16:18:05
       Step Size:    0.791E-01 s, Total Time:     197.64 s
       Pressure Iterations:      1
       Maximum Velocity Error:  0.87E-18 on Mesh   1 at (  21   1   2)
       Maximum Pressure Error:  0.80E-05 on Mesh   3 at (  20   1  20)
       ---------------------------------------------------------------
       Mesh    1
       Max CFL number:  0.58E-01 at (   8,   1,  11)
       Max divergence:  0.69E-05 at (   4,   1,   5)
       Min divergence: -0.81E-05 at (   3,   1,   7)
       Max VN number:   0.10E-01 at (   9,   1,   5)
       Mesh    2
       Max CFL number:  0.89E-01 at (  19,   1,   2)
       Max divergence:  0.11E-04 at (   6,   1,  14)
       Min divergence: -0.91E-05 at (   5,   1,  15)
       Max VN number:   0.10E-01 at (  14,   1,   2)
       Mesh    3
       Max CFL number:  0.80E-01 at (   1,   1,   2)
       Max divergence:  0.11E-04 at (  20,   1,   3)
       Min divergence: -0.22E-04 at (  20,   1,  20)
       Max VN number:   0.12E-01 at (  19,   1,  19)
 
       Time Step    2600   June 26, 2020  16:18:06
       Step Size:    0.791E-01 s, Total Time:     205.55 s
       Pressure Iterations:      1
       Maximum Velocity Error:  0.17E-17 on Mesh   1 at (  21   1   1)
       Maximum Pressure Error:  0.38E-05 on Mesh   3 at (   5   1   1)
       ---------------------------------------------------------------
       Mesh    1
       Max CFL number:  0.63E-01 at (  13,   1,   1)
       Max divergence:  0.94E-05 at (  10,   1,  14)
       Min divergence: -0.77E-05 at (  18,   1,  20)
       Max VN number:   0.11E-01 at (   9,   1,   3)
       Mesh    2
       Max CFL number:  0.88E-01 at (  17,   1,   2)
       Max divergence:  0.11E-04 at (   7,   1,  15)
       Min divergence: -0.10E-04 at (   5,   1,  15)
       Max VN number:   0.10E-01 at (   5,   1,  14)
       Mesh    3
       Max CFL number:  0.89E-01 at (  14,   1,   2)
       Max divergence:  0.11E-04 at (  10,   1,   7)
       Min divergence: -0.93E-05 at (  14,   1,  20)
       Max VN number:   0.98E-02 at (  10,   1,   7)
 
       Time Step    2700   June 26, 2020  16:18:06
       Step Size:    0.791E-01 s, Total Time:     213.45 s
       Pressure Iterations:      1
       Maximum Velocity Error:  0.35E-17 on Mesh   1 at (  21   1   4)
       Maximum Pressure Error:  0.55E-05 on Mesh   2 at (  17   1   1)
       ---------------------------------------------------------------
       Mesh    1
       Max CFL number:  0.61E-01 at (  11,   1,   1)
       Max divergence:  0.77E-05 at (  12,   1,   6)
       Min divergence: -0.10E-04 at (  11,   1,   7)
       Max VN number:   0.99E-02 at (   6,   1,  18)
       Mesh    2
       Max CFL number:  0.81E-01 at (   7,   1,   9)
       Max divergence:  0.11E-04 at (   8,   1,  16)
       Min divergence: -0.11E-04 at (   4,   1,  15)
       Max VN number:   0.11E-01 at (   5,   1,  14)
       Mesh    3
       Max CFL number:  0.98E-01 at (  10,   1,   2)
       Max divergence:  0.77E-05 at (  20,   1,   3)
       Min divergence: -0.91E-05 at (   9,   1,  20)
       Max VN number:   0.11E-01 at (  16,   1,   9)
 
       Time Step    2800   June 26, 2020  16:18:07
       Step Size:    0.791E-01 s, Total Time:     221.36 s
       Pressure Iterations:      1
       Maximum Velocity Error:  0.35E-17 on Mesh   2 at (  21   1  11)
       Maximum Pressure Error:  0.51E-05 on Mesh   2 at (  11   1   1)
       ---------------------------------------------------------------
       Mesh    1
       Max CFL number:  0.68E-01 at (  20,   1,   1)
       Max divergence:  0.93E-05 at (  12,   1,   6)
       Min divergence: -0.92E-05 at (  11,   1,   7)
       Max VN number:   0.12E-01 at (  12,   1,  14)
       Mesh    2
       Max CFL number:  0.82E-01 at (   3,   1,   3)
       Max divergence:  0.92E-05 at (   6,   1,  15)
       Min divergence: -0.10E-04 at (   6,   1,   8)
       Max VN number:   0.13E-01 at (   6,   1,  15)
       Mesh    3
       Max CFL number:  0.93E-01 at (   7,   1,   1)
       Max divergence:  0.60E-05 at (  12,   1,  18)
       Min divergence: -0.10E-04 at (  11,   1,  20)
       Max VN number:   0.98E-02 at (   5,   1,   2)
 
       Time Step    2900   June 26, 2020  16:18:08
       Step Size:    0.791E-01 s, Total Time:     229.27 s
       Pressure Iterations:      1
       Maximum Velocity Error:  0.35E-17 on Mesh   1 at (  21   1  16)
       Maximum Pressure Error:  0.56E-05 on Mesh   1 at (  17   1   1)
       ---------------------------------------------------------------
       Mesh    1
       Max CFL number:  0.91E-01 at (  17,   1,   3)
       Max divergence:  0.67E-05 at (  18,   1,   1)
       Min divergence: -0.91E-05 at (  11,   1,   9)
       Max VN number:   0.14E-01 at (  11,   1,  10)
       Mesh    2
       Max CFL number:  0.81E-01 at (   1,   1,   4)
       Max divergence:  0.94E-05 at (   5,   1,   6)
       Min divergence: -0.85E-05 at (   5,   1,   7)
       Max VN number:   0.14E-01 at (   6,   1,   9)
       Mesh    3
       Max CFL number:  0.87E-01 at (   4,   1,   2)
       Max divergence:  0.11E-04 at (  13,   1,  16)
       Min divergence: -0.12E-04 at (  13,   1,  18)
       Max VN number:   0.10E-01 at (  13,   1,  17)
 
       Time Step    3000   June 26, 2020  16:18:08
       Step Size:    0.791E-01 s, Total Time:     237.17 s
       Pressure Iterations:      1
       Maximum Velocity Error:  0.69E-17 on Mesh   1 at (  21   1   4)
       Maximum Pressure Error:  0.39E-05 on Mesh   2 at (   3   1   1)
       ---------------------------------------------------------------
       Mesh    1
       Max CFL number:  0.84E-01 at (  14,   1,   4)
       Max divergence:  0.74E-05 at (  13,   1,   1)
       Min divergence: -0.11E-04 at (   1,   1,  13)
       Max VN number:   0.12E-01 at (  12,   1,  13)
       Mesh    2
       Max CFL number:  0.91E-01 at (   7,   1,   2)
       Max divergence:  0.69E-05 at (   1,   1,   1)
       Min divergence: -0.79E-05 at (   9,   1,   9)
       Max VN number:   0.10E-01 at (   6,   1,  10)
       Mesh    3
       Max CFL number:  0.87E-01 at (   2,   1,   2)
       Max divergence:  0.12E-04 at (  15,   1,  16)
       Min divergence: -0.11E-04 at (  14,   1,  17)
       Max VN number:   0.11E-01 at (  13,   1,  17)
 
       Time Step    3100   June 26, 2020  16:18:09
       Step Size:    0.791E-01 s, Total Time:     245.08 s
       Pressure Iterations:      1
       Maximum Velocity Error:  0.35E-17 on Mesh   1 at (  21   1  16)
       Maximum Pressure Error:  0.31E-05 on Mesh   1 at (  18   1   1)
       ---------------------------------------------------------------
       Mesh    1
       Max CFL number:  0.85E-01 at (  20,   1,   3)
       Max divergence:  0.68E-05 at (  10,   1,   1)
       Min divergence: -0.90E-05 at (   1,   1,  14)
       Max VN number:   0.91E-02 at (  12,   1,   5)
       Mesh    2
       Max CFL number:  0.97E-01 at (   4,   1,   2)
       Max divergence:  0.63E-05 at (  13,   1,   6)
       Min divergence: -0.66E-05 at (  17,   1,  20)
       Max VN number:   0.11E-01 at (   8,   1,  10)
       Mesh    3
       Max CFL number:  0.79E-01 at (   1,   1,   2)
       Max divergence:  0.11E-04 at (   7,   1,  17)
       Min divergence: -0.90E-05 at (   7,   1,  18)
       Max VN number:   0.11E-01 at (  13,   1,  16)
 
       Time Step    3200   June 26, 2020  16:18:10
       Step Size:    0.791E-01 s, Total Time:     252.98 s
       Pressure Iterations:      1
       Maximum Velocity Error:  0.69E-17 on Mesh   1 at (  21   1   2)
       Maximum Pressure Error:  0.24E-05 on Mesh   1 at (  15   1   1)
       ---------------------------------------------------------------
       Mesh    1
       Max CFL number:  0.85E-01 at (  20,   1,   2)
       Max divergence:  0.59E-05 at (  10,   1,   1)
       Min divergence: -0.77E-05 at (   1,   1,  20)
       Max VN number:   0.85E-02 at (   3,   1,   5)
       Mesh    2
       Max CFL number:  0.84E-01 at (   1,   1,   2)
       Max divergence:  0.46E-05 at (   9,   1,   1)
       Min divergence: -0.64E-05 at (  20,   1,  20)
       Max VN number:   0.83E-02 at (  10,   1,   9)
       Mesh    3
       Max CFL number:  0.79E-01 at (  20,   1,  13)
       Max divergence:  0.92E-05 at (   3,   1,  16)
       Min divergence: -0.66E-05 at (   8,   1,  20)
       Max VN number:   0.11E-01 at (   3,   1,  16)
 
       Time Step    3300   June 26, 2020  16:18:11
       Step Size:    0.791E-01 s, Total Time:     260.89 s
       Pressure Iterations:      1
       Maximum Velocity Error:  0.35E-17 on Mesh   2 at (  21   1   1)
       Maximum Pressure Error:  0.23E-05 on Mesh   1 at (   1   1   8)
       ---------------------------------------------------------------
       Mesh    1
       Max CFL number:  0.81E-01 at (   1,   1,  11)
       Max divergence:  0.60E-05 at (  10,   1,   1)
       Min divergence: -0.88E-05 at (   1,   1,  17)
       Max VN number:   0.94E-02 at (  13,   1,   2)
       Mesh    2
       Max CFL number:  0.76E-01 at (  15,   1,   2)
       Max divergence:  0.46E-05 at (   8,   1,   4)
       Min divergence: -0.62E-05 at (  20,   1,  20)
       Max VN number:   0.81E-02 at (  13,   1,  10)
       Mesh    3
       Max CFL number:  0.69E-01 at (   9,   1,  19)
       Max divergence:  0.80E-05 at (   4,   1,  16)
       Min divergence: -0.63E-05 at (   2,   1,  16)
       Max VN number:   0.99E-02 at (   2,   1,  15)
 
       Time Step    3400   June 26, 2020  16:18:11
       Step Size:    0.791E-01 s, Total Time:     268.79 s
       Pressure Iterations:      1
       Maximum Velocity Error:  0.17E-17 on Mesh   1 at (  21   1  16)
       Maximum Pressure Error:  0.19E-05 on Mesh   3 at (   8   1  20)
       ---------------------------------------------------------------
       Mesh    1
       Max CFL number:  0.65E-01 at (   1,   1,  15)
       Max divergence:  0.60E-05 at (   2,   1,   1)
       Min divergence: -0.83E-05 at (   1,   1,  18)
       Max VN number:   0.92E-02 at (  13,   1,   2)
       Mesh    2
       Max CFL number:  0.72E-01 at (  14,   1,   1)
       Max divergence:  0.46E-05 at (  15,   1,   4)
       Min divergence: -0.54E-05 at (  11,   1,  20)
       Max VN number:   0.77E-02 at (  17,   1,  10)
       Mesh    3
       Max CFL number:  0.68E-01 at (   7,   1,  19)
       Max divergence:  0.58E-05 at (   1,   1,  15)
       Min divergence: -0.61E-05 at (   2,   1,  20)
       Max VN number:   0.91E-02 at (   2,   1,  15)
 
       Time Step    3500   June 26, 2020  16:18:12
       Step Size:    0.791E-01 s, Total Time:     276.70 s
       Pressure Iterations:      1
       Maximum Velocity Error:  0.87E-18 on Mesh   2 at (   0   1  10)
       Maximum Pressure Error:  0.82E-06 on Mesh   3 at (   3   1  20)
       ---------------------------------------------------------------
       Mesh    1
       Max CFL number:  0.58E-01 at (   8,   1,   5)
       Max divergence:  0.87E-05 at (   2,   1,  18)
       Min divergence: -0.78E-05 at (   2,   1,  20)
       Max VN number:   0.10E-01 at (  10,   1,   2)
       Mesh    2
       Max CFL number:  0.58E-01 at (  12,   1,   1)
       Max divergence:  0.40E-05 at (  20,   1,   1)
       Min divergence: -0.58E-05 at (   7,   1,  20)
       Max VN number:   0.84E-02 at (  18,   1,   9)
       Mesh    3
       Max CFL number:  0.61E-01 at (   5,   1,  18)
       Max divergence:  0.39E-05 at (   1,   1,   1)
       Min divergence: -0.61E-05 at (  20,   1,  10)
       Max VN number:   0.74E-02 at (  18,   1,   9)
 
       Time Step    3600   June 26, 2020  16:18:12
       Step Size:    0.791E-01 s, Total Time:     284.60 s
       Pressure Iterations:      1
       Maximum Velocity Error:  0.33E-18 on Mesh   1 at (  21   1   2)
       Maximum Pressure Error:  0.66E-06 on Mesh   3 at (   7   1  20)
       ---------------------------------------------------------------
       Mesh    1
       Max CFL number:  0.52E-01 at (   6,   1,   5)
       Max divergence:  0.62E-05 at (   4,   1,  18)
       Min divergence: -0.89E-05 at (   3,   1,  20)
       Max VN number:   0.11E-01 at (  10,   1,   2)
       Mesh    2
       Max CFL number:  0.46E-01 at (  20,   1,  19)
       Max divergence:  0.40E-05 at (  19,   1,  10)
       Min divergence: -0.53E-05 at (   5,   1,  20)
       Max VN number:   0.82E-02 at (  16,   1,   9)
       Mesh    3
       Max CFL number:  0.52E-01 at (   2,   1,  19)
       Max divergence:  0.34E-05 at (  20,   1,   6)
       Min divergence: -0.55E-05 at (  20,   1,   9)
       Max VN number:   0.76E-02 at (  11,   1,  17)
 
       Time Step    3700   June 26, 2020  16:18:13
       Step Size:    0.791E-01 s, Total Time:     292.51 s
       Pressure Iterations:      1
       Maximum Velocity Error:  0.17E-17 on Mesh   1 at (  21   1   1)
       Maximum Pressure Error:  0.65E-06 on Mesh   1 at (   1   1  20)
       ---------------------------------------------------------------
       Mesh    1
       Max CFL number:  0.49E-01 at (   7,   1,   1)
       Max divergence:  0.63E-05 at (   4,   1,  17)
       Min divergence: -0.57E-05 at (   6,   1,  17)
       Max VN number:   0.90E-02 at (   5,   1,  16)
       Mesh    2
       Max CFL number:  0.42E-01 at (   8,   1,   8)
       Max divergence:  0.56E-05 at (  19,   1,  11)
       Min divergence: -0.51E-05 at (   6,   1,  20)
       Max VN number:   0.89E-02 at (  17,   1,  11)
       Mesh    3
       Max CFL number:  0.40E-01 at (   3,   1,  12)
       Max divergence:  0.31E-05 at (   9,   1,   1)
       Min divergence: -0.59E-05 at (  20,   1,   9)
       Max VN number:   0.83E-02 at (   1,   1,   9)
 
       Time Step    3800   June 26, 2020  16:18:14
       Step Size:    0.791E-01 s, Total Time:     300.42 s
       Pressure Iterations:      1
       Maximum Velocity Error:  0.87E-18 on Mesh   2 at (   0   1  15)
       Maximum Pressure Error:  0.67E-06 on Mesh   1 at (  12   1  20)
       ---------------------------------------------------------------
       Mesh    1
       Max CFL number:  0.52E-01 at (   8,   1,   1)
       Max divergence:  0.68E-05 at (   6,   1,  13)
       Min divergence: -0.59E-05 at (   7,   1,  14)
       Max VN number:   0.90E-02 at (   5,   1,  15)
       Mesh    2
       Max CFL number:  0.43E-01 at (   9,   1,   8)
       Max divergence:  0.50E-05 at (  20,   1,  11)
       Min divergence: -0.47E-05 at (  14,   1,  20)
       Max VN number:   0.90E-02 at (  17,   1,  10)
       Mesh    3
       Max CFL number:  0.34E-01 at (   5,   1,  12)
       Max divergence:  0.71E-05 at (   3,   1,   9)
       Min divergence: -0.56E-05 at (   3,   1,  10)
       Max VN number:   0.89E-02 at (  10,   1,   3)
 
       Time Step    3900   June 26, 2020  16:18:15
       Step Size:    0.791E-01 s, Total Time:     308.32 s
       Pressure Iterations:      1
       Maximum Velocity Error:  0.17E-17 on Mesh   2 at (  21   1   8)
       Maximum Pressure Error:  0.59E-06 on Mesh   1 at (   9   1  20)
       ---------------------------------------------------------------
       Mesh    1
       Max CFL number:  0.57E-01 at (   9,   1,   1)
       Max divergence:  0.42E-05 at (   1,   1,  13)
       Min divergence: -0.51E-05 at (   6,   1,  14)
       Max VN number:   0.11E-01 at (   7,   1,  14)
       Mesh    2
       Max CFL number:  0.45E-01 at (  10,   1,   9)
       Max divergence:  0.32E-05 at (  20,   1,  11)
       Min divergence: -0.41E-05 at (  14,   1,  20)
       Max VN number:   0.77E-02 at (  20,   1,  12)
       Mesh    3
       Max CFL number:  0.41E-01 at (   3,   1,   7)
       Max divergence:  0.36E-05 at (   1,   1,  10)
       Min divergence: -0.51E-05 at (  20,   1,  12)
       Max VN number:   0.76E-02 at (   2,   1,   9)
 
       Time Step    4000   June 26, 2020  16:18:16
       Step Size:    0.791E-01 s, Total Time:     316.23 s
       Pressure Iterations:      1
       Maximum Velocity Error:  0.35E-17 on Mesh   1 at (  21   1  16)
       Maximum Pressure Error:  0.63E-06 on Mesh   2 at (  20   1  20)
       ---------------------------------------------------------------
       Mesh    1
       Max CFL number:  0.57E-01 at (  14,   1,   1)
       Max divergence:  0.52E-05 at (   1,   1,  13)
       Min divergence: -0.39E-05 at (   1,   1,  15)
       Max VN number:   0.99E-02 at (   7,   1,  12)
       Mesh    2
       Max CFL number:  0.47E-01 at (  12,   1,   9)
       Max divergence:  0.32E-05 at (  19,   1,  11)
       Min divergence: -0.37E-05 at (  19,   1,  12)
       Max VN number:   0.72E-02 at (  16,   1,  10)
       Mesh    3
       Max CFL number:  0.49E-01 at (   4,   1,  20)
       Max divergence:  0.35E-05 at (  19,   1,  11)
       Min divergence: -0.54E-05 at (  20,   1,  12)
       Max VN number:   0.72E-02 at (   9,   1,   3)
 
       Time Step    4100   June 26, 2020  16:18:16
       Step Size:    0.791E-01 s, Total Time:     324.13 s
       Pressure Iterations:      1
       Maximum Velocity Error:  0.35E-17 on Mesh   2 at (  21   1  19)
       Maximum Pressure Error:  0.83E-06 on Mesh   2 at (  16   1  20)
       ---------------------------------------------------------------
       Mesh    1
       Max CFL number:  0.59E-01 at (  16,   1,   1)
       Max divergence:  0.44E-05 at (   1,   1,  12)
       Min divergence: -0.41E-05 at (   7,   1,  12)
       Max VN number:   0.86E-02 at (   2,   1,   2)
       Mesh    2
       Max CFL number:  0.62E-01 at (  19,   1,  20)
       Max divergence:  0.34E-05 at (  15,   1,  12)
       Min divergence: -0.44E-05 at (  19,   1,  20)
       Max VN number:   0.90E-02 at (  17,   1,  12)
       Mesh    3
       Max CFL number:  0.61E-01 at (   1,   1,  20)
       Max divergence:  0.26E-05 at (  11,   1,   4)
       Min divergence: -0.65E-05 at (  20,   1,  13)
       Max VN number:   0.73E-02 at (  10,   1,   3)
 
       Time Step    4200   June 26, 2020  16:18:17
       Step Size:    0.791E-01 s, Total Time:     332.04 s
       Pressure Iterations:      1
       Maximum Velocity Error:  0.17E-17 on Mesh   2 at (   0   1   3)
       Maximum Pressure Error:  0.10E-05 on Mesh   2 at (  14   1  20)
       ---------------------------------------------------------------
       Mesh    1
       Max CFL number:  0.54E-01 at (  18,   1,   1)
       Max divergence:  0.60E-05 at (   1,   1,  11)
       Min divergence: -0.43E-05 at (   2,   1,  12)
       Max VN number:   0.79E-02 at (   2,   1,  12)
       Mesh    2
       Max CFL number:  0.68E-01 at (  15,   1,  20)
       Max divergence:  0.32E-05 at (   8,   1,   1)
       Min divergence: -0.41E-05 at (  14,   1,  20)
       Max VN number:   0.87E-02 at (  16,   1,  12)
       Mesh    3
       Max CFL number:  0.50E-01 at (   1,   1,  20)
       Max divergence:  0.27E-05 at (  19,   1,  12)
       Min divergence: -0.56E-05 at (  20,   1,  14)
       Max VN number:   0.75E-02 at (  19,   1,  19)
 
       Time Step    4300   June 26, 2020  16:18:18
       Step Size:    0.791E-01 s, Total Time:     339.94 s
       Pressure Iterations:      1
       Maximum Velocity Error:  0.00E+00 on Mesh   1 at (  21   1   6)
       Maximum Pressure Error:  0.86E-06 on Mesh   2 at (   8   1  20)
       ---------------------------------------------------------------
       Mesh    1
       Max CFL number:  0.48E-01 at (  20,   1,   1)
       Max divergence:  0.55E-05 at (   1,   1,  10)
       Min divergence: -0.37E-05 at (   2,   1,  11)
       Max VN number:   0.80E-02 at (   2,   1,  11)
       Mesh    2
       Max CFL number:  0.66E-01 at (  10,   1,  20)
       Max divergence:  0.34E-05 at (  15,   1,  10)
       Min divergence: -0.36E-05 at (   9,   1,  20)
       Max VN number:   0.74E-02 at (  15,   1,  13)
       Mesh    3
       Max CFL number:  0.47E-01 at (   1,   1,   7)
       Max divergence:  0.22E-05 at (  12,   1,   5)
       Min divergence: -0.51E-05 at (  20,   1,  14)
       Max VN number:   0.82E-02 at (  19,   1,  19)
 
       Time Step    4400   June 26, 2020  16:18:19
       Step Size:    0.791E-01 s, Total Time:     347.85 s
       Pressure Iterations:      1
       Maximum Velocity Error:  0.17E-17 on Mesh   1 at (  21   1   5)
       Maximum Pressure Error:  0.92E-06 on Mesh   2 at (  10   1   1)
       ---------------------------------------------------------------
       Mesh    1
       Max CFL number:  0.39E-01 at (  10,   1,   8)
       Max divergence:  0.47E-05 at (   1,   1,   9)
       Min divergence: -0.37E-05 at (   3,   1,  10)
       Max VN number:   0.74E-02 at (   4,   1,   5)
       Mesh    2
       Max CFL number:  0.61E-01 at (   7,   1,  19)
       Max divergence:  0.47E-05 at (  17,   1,  10)
       Min divergence: -0.41E-05 at (  18,   1,  11)
       Max VN number:   0.78E-02 at (  17,   1,  10)
       Mesh    3
       Max CFL number:  0.52E-01 at (   1,   1,   8)
       Max divergence:  0.22E-05 at (  17,   1,  18)
       Min divergence: -0.50E-05 at (  20,   1,  15)
       Max VN number:   0.83E-02 at (  19,   1,  19)
 
       Time Step    4500   June 26, 2020  16:18:20
       Step Size:    0.791E-01 s, Total Time:     355.76 s
       Pressure Iterations:      1
       Maximum Velocity Error:  0.35E-17 on Mesh   2 at (  21   1  18)
       Maximum Pressure Error:  0.89E-06 on Mesh   2 at (  14   1   1)
       ---------------------------------------------------------------
       Mesh    1
       Max CFL number:  0.36E-01 at (  20,   1,  15)
       Max divergence:  0.53E-05 at (   1,   1,   9)
       Min divergence: -0.34E-05 at (   2,   1,  10)
       Max VN number:   0.75E-02 at (   8,   1,   5)
       Mesh    2
       Max CFL number:  0.53E-01 at (  16,   1,   1)
       Max divergence:  0.47E-05 at (  20,   1,  10)
       Min divergence: -0.49E-05 at (  16,   1,  13)
       Max VN number:   0.95E-02 at (  20,   1,  10)
       Mesh    3
       Max CFL number:  0.46E-01 at (   1,   1,   9)
       Max divergence:  0.21E-05 at (   1,   1,   9)
       Min divergence: -0.54E-05 at (  20,   1,  20)
       Max VN number:   0.79E-02 at (  19,   1,  19)
 
       Time Step    4600   June 26, 2020  16:18:21
       Step Size:    0.791E-01 s, Total Time:     363.66 s
       Pressure Iterations:      1
       Maximum Velocity Error:  0.35E-17 on Mesh   1 at (  21   1   5)
       Maximum Pressure Error:  0.56E-06 on Mesh   2 at (  17   1   1)
       ---------------------------------------------------------------
       Mesh    1
       Max CFL number:  0.43E-01 at (  18,   1,  15)
       Max divergence:  0.49E-05 at (   1,   1,   8)
       Min divergence: -0.27E-05 at (   7,   1,  20)
       Max VN number:   0.82E-02 at (   2,   1,   5)
       Mesh    2
       Max CFL number:  0.53E-01 at (   8,   1,   2)
       Max divergence:  0.30E-05 at (  12,   1,   1)
       Min divergence: -0.28E-05 at (   5,   1,  20)
       Max VN number:   0.73E-02 at (  20,   1,   9)
       Mesh    3
       Max CFL number:  0.45E-01 at (   1,   1,   8)
       Max divergence:  0.36E-05 at (   1,   1,  11)
       Min divergence: -0.56E-05 at (  20,   1,  20)
       Max VN number:   0.93E-02 at (   2,   1,  10)
 
       Time Step    4700   June 26, 2020  16:18:22
       Step Size:    0.791E-01 s, Total Time:     371.57 s
       Pressure Iterations:      1
       Maximum Velocity Error:  0.35E-17 on Mesh   1 at (  21   1  18)
       Maximum Pressure Error:  0.49E-06 on Mesh   2 at (   6   1   1)
       ---------------------------------------------------------------
       Mesh    1
       Max CFL number:  0.42E-01 at (  16,   1,  13)
       Max divergence:  0.40E-05 at (   1,   1,   7)
       Min divergence: -0.28E-05 at (   1,   1,   9)
       Max VN number:   0.81E-02 at (   2,   1,   4)
       Mesh    2
       Max CFL number:  0.46E-01 at (  11,   1,   2)
       Max divergence:  0.28E-05 at (  14,   1,   1)
       Min divergence: -0.25E-05 at (   2,   1,  20)
       Max VN number:   0.66E-02 at (  20,   1,  10)
       Mesh    3
       Max CFL number:  0.40E-01 at (   2,   1,   9)
       Max divergence:  0.26E-05 at (   1,   1,   1)
       Min divergence: -0.52E-05 at (  20,   1,  20)
       Max VN number:   0.89E-02 at (   2,   1,   9)
 
       Time Step    4800   June 26, 2020  16:18:23
       Step Size:    0.791E-01 s, Total Time:     379.47 s
       Pressure Iterations:      1
       Maximum Velocity Error:  0.87E-18 on Mesh   2 at (   0   1  11)
       Maximum Pressure Error:  0.27E-06 on Mesh   2 at (  11   1   1)
       ---------------------------------------------------------------
       Mesh    1
       Max CFL number:  0.34E-01 at (  14,   1,  12)
       Max divergence:  0.40E-05 at (   1,   1,   1)
       Min divergence: -0.29E-05 at (   1,   1,   9)
       Max VN number:   0.70E-02 at (   2,   1,   3)
       Mesh    2
       Max CFL number:  0.39E-01 at (  14,   1,   3)
       Max divergence:  0.24E-05 at (  12,   1,   1)
       Min divergence: -0.23E-05 at (  18,   1,  20)
       Max VN number:   0.68E-02 at (  20,   1,  11)
       Mesh    3
       Max CFL number:  0.36E-01 at (   3,   1,  10)
       Max divergence:  0.23E-05 at (   2,   1,   1)
       Min divergence: -0.47E-05 at (  20,   1,  20)
       Max VN number:   0.81E-02 at (   2,   1,  10)
 
       Time Step    4900   June 26, 2020  16:18:25
       Step Size:    0.791E-01 s, Total Time:     387.38 s
       Pressure Iterations:      1
       Maximum Velocity Error:  0.17E-17 on Mesh   1 at (  21   1   7)
       Maximum Pressure Error:  0.17E-06 on Mesh   3 at (  14   1  20)
       ---------------------------------------------------------------
       Mesh    1
       Max CFL number:  0.32E-01 at (  11,   1,   9)
       Max divergence:  0.36E-05 at (   1,   1,   1)
       Min divergence: -0.25E-05 at (   8,   1,  20)
       Max VN number:   0.69E-02 at (   2,   1,   3)
       Mesh    2
       Max CFL number:  0.34E-01 at (  20,   1,   6)
       Max divergence:  0.24E-05 at (  17,   1,   1)
       Min divergence: -0.24E-05 at (   4,   1,  20)
       Max VN number:   0.69E-02 at (  20,   1,  11)
       Mesh    3
       Max CFL number:  0.34E-01 at (   1,   1,   6)
       Max divergence:  0.22E-05 at (   3,   1,   1)
       Min divergence: -0.40E-05 at (  20,   1,  20)
       Max VN number:   0.72E-02 at (   2,   1,   9)
 
       Time Step    5000   June 26, 2020  16:18:26
       Step Size:    0.791E-01 s, Total Time:     395.28 s
       Pressure Iterations:      1
       Maximum Velocity Error:  0.17E-17 on Mesh   2 at (  21   1  18)
       Maximum Pressure Error:  0.11E-06 on Mesh   1 at (   8   1   1)
       ---------------------------------------------------------------
       Mesh    1
       Max CFL number:  0.28E-01 at (  13,   1,   2)
       Max divergence:  0.31E-05 at (   1,   1,   1)
       Min divergence: -0.23E-05 at (   1,   1,  20)
       Max VN number:   0.66E-02 at (   2,   1,  18)
       Mesh    2
       Max CFL number:  0.33E-01 at (  20,   1,   5)
       Max divergence:  0.23E-05 at (  15,   1,   1)
       Min divergence: -0.23E-05 at (   4,   1,  20)
       Max VN number:   0.68E-02 at (  14,   1,   2)
       Mesh    3
       Max CFL number:  0.32E-01 at (   1,   1,   5)
       Max divergence:  0.21E-05 at (   9,   1,   1)
       Min divergence: -0.37E-05 at (  20,   1,  20)
       Max VN number:   0.69E-02 at (   3,   1,   9)
 
       Time Step    5100   June 26, 2020  16:18:27
       Step Size:    0.791E-01 s, Total Time:     403.19 s
       Pressure Iterations:      1
       Maximum Velocity Error:  0.35E-17 on Mesh   2 at (  21   1   5)
       Maximum Pressure Error:  0.11E-06 on Mesh   1 at (  10   1   1)
       ---------------------------------------------------------------
       Mesh    1
       Max CFL number:  0.24E-01 at (   9,   1,   8)
       Max divergence:  0.28E-05 at (   1,   1,   1)
       Min divergence: -0.25E-05 at (  19,   1,  20)
       Max VN number:   0.65E-02 at (   2,   1,  16)
       Mesh    2
       Max CFL number:  0.32E-01 at (  20,   1,   5)
       Max divergence:  0.21E-05 at (  16,   1,   1)
       Min divergence: -0.22E-05 at (   1,   1,  20)
       Max VN number:   0.73E-02 at (  15,   1,   2)
       Mesh    3
       Max CFL number:  0.32E-01 at (   1,   1,   5)
       Max divergence:  0.19E-05 at (  10,   1,   1)
       Min divergence: -0.36E-05 at (  20,   1,  20)
       Max VN number:   0.65E-02 at (   4,   1,   9)
 
       Time Step    5200   June 26, 2020  16:18:28
       Step Size:    0.791E-01 s, Total Time:     411.10 s
       Pressure Iterations:      1
       Maximum Velocity Error:  0.17E-17 on Mesh   2 at (  21   1  12)
       Maximum Pressure Error:  0.66E-07 on Mesh   2 at (  17   1   1)
       ---------------------------------------------------------------
       Mesh    1
       Max CFL number:  0.21E-01 at (  17,   1,  11)
       Max divergence:  0.24E-05 at (   1,   1,   1)
       Min divergence: -0.26E-05 at (  19,   1,  20)
       Max VN number:   0.64E-02 at (   2,   1,  16)
       Mesh    2
[...]
       Pressure Iterations:      1
       Maximum Velocity Error:  0.17E-17 on Mesh   1 at (  21   1   4)
       Maximum Pressure Error:  0.11E-06 on Mesh   3 at (  11   1  16)
       ---------------------------------------------------------------
       Mesh    1
       Max CFL number:  0.32E-01 at (  10,   1,   3)
       Max divergence:  0.15E-05 at (   9,   1,   2)
       Min divergence: -0.17E-05 at (  16,   1,  20)
       Max VN number:   0.64E-02 at (  10,   1,   3)
       Mesh    2
       Max CFL number:  0.35E-01 at (  11,   1,   2)
       Max divergence:  0.13E-05 at (  13,   1,   1)
       Min divergence: -0.17E-05 at (  13,   1,  20)
       Max VN number:   0.56E-02 at (  20,   1,   4)
       Mesh    3
       Max CFL number:  0.38E-01 at (   6,   1,  19)
       Max divergence:  0.14E-05 at (   6,   1,   1)
       Min divergence: -0.18E-05 at (  11,   1,  16)
       Max VN number:   0.62E-02 at (  12,   1,  16)
 
       Time Step    5900   June 26, 2020  16:18:39
       Step Size:    0.791E-01 s, Total Time:     466.44 s
       Pressure Iterations:      1
       Maximum Velocity Error:  0.17E-17 on Mesh   1 at (  21   1   4)
       Maximum Pressure Error:  0.12E-06 on Mesh   3 at (  12   1  14)
       ---------------------------------------------------------------
       Mesh    1
       Max CFL number:  0.32E-01 at (   8,   1,   3)
       Max divergence:  0.12E-05 at (   7,   1,   2)
       Min divergence: -0.16E-05 at (  16,   1,  20)
       Max VN number:   0.65E-02 at (   8,   1,   3)
       Mesh    2
       Max CFL number:  0.35E-01 at (  10,   1,   2)
       Max divergence:  0.13E-05 at (  13,   1,   1)
       Min divergence: -0.16E-05 at (   1,   1,  20)
       Max VN number:   0.56E-02 at (  20,   1,   2)
       Mesh    3
       Max CFL number:  0.38E-01 at (   7,   1,  19)
       Max divergence:  0.14E-05 at (   6,   1,   1)
       Min divergence: -0.19E-05 at (  12,   1,  16)
       Max VN number:   0.64E-02 at (  12,   1,  14)
 
       Time Step    6000   June 26, 2020  16:18:42
       Step Size:    0.791E-01 s, Total Time:     474.34 s
       Pressure Iterations:      1
       Maximum Velocity Error:  0.35E-17 on Mesh   1 at (  21   1  16)
       Maximum Pressure Error:  0.10E-06 on Mesh   3 at (  12   1  14)
       ---------------------------------------------------------------
       Mesh    1
       Max CFL number:  0.36E-01 at (   7,   1,   4)
       Max divergence:  0.10E-05 at (  20,   1,   1)
       Min divergence: -0.17E-05 at (  15,   1,  20)
       Max VN number:   0.71E-02 at (   7,   1,   4)
       Mesh    2
       Max CFL number:  0.34E-01 at (  10,   1,   1)
       Max divergence:  0.13E-05 at (  11,   1,   1)
       Min divergence: -0.17E-05 at (   1,   1,  20)
       Max VN number:   0.57E-02 at (  19,   1,   2)
       Mesh    3
       Max CFL number:  0.35E-01 at (  11,   1,  19)
       Max divergence:  0.14E-05 at (   4,   1,   1)
       Min divergence: -0.16E-05 at (   3,   1,  20)
       Max VN number:   0.68E-02 at (  10,   1,  14)
 
       Time Step    6100   June 26, 2020  16:18:45
       Step Size:    0.791E-01 s, Total Time:     482.25 s
       Pressure Iterations:      1
       Maximum Velocity Error:  0.17E-17 on Mesh   2 at (  21   1  20)
       Maximum Pressure Error:  0.73E-07 on Mesh   2 at (  11   1   1)
       ---------------------------------------------------------------
       Mesh    1
       Max CFL number:  0.35E-01 at (  11,   1,   2)
       Max divergence:  0.11E-05 at (   5,   1,   1)
       Min divergence: -0.17E-05 at (  16,   1,  20)
       Max VN number:   0.64E-02 at (   5,   1,   4)
       Mesh    2
       Max CFL number:  0.33E-01 at (   8,   1,   1)
       Max divergence:  0.15E-05 at (  19,   1,   1)
       Min divergence: -0.17E-05 at (   1,   1,  20)
       Max VN number:   0.56E-02 at (  18,   1,   2)
       Mesh    3
       Max CFL number:  0.35E-01 at (   8,   1,  10)
       Max divergence:  0.14E-05 at (   3,   1,   1)
       Min divergence: -0.14E-05 at (  13,   1,  14)
       Max VN number:   0.74E-02 at (  12,   1,  14)
 
       Time Step    6200   June 26, 2020  16:18:47
       Step Size:    0.791E-01 s, Total Time:     490.15 s
       Pressure Iterations:      1
       Maximum Velocity Error:  0.87E-18 on Mesh   2 at (  21   1  10)
       Maximum Pressure Error:  0.88E-07 on Mesh   2 at (  19   1   1)
       ---------------------------------------------------------------
       Mesh    1
       Max CFL number:  0.34E-01 at (   9,   1,   2)
       Max divergence:  0.12E-05 at (   5,   1,   1)
       Min divergence: -0.16E-05 at (  16,   1,  20)
       Max VN number:   0.62E-02 at (   3,   1,  17)
       Mesh    2
       Max CFL number:  0.33E-01 at (  18,   1,  18)
       Max divergence:  0.15E-05 at (  18,   1,   1)
       Min divergence: -0.16E-05 at (   2,   1,  20)
       Max VN number:   0.54E-02 at (  16,   1,   2)
       Mesh    3
       Max CFL number:  0.33E-01 at (   8,   1,  19)
       Max divergence:  0.14E-05 at (   3,   1,   1)
       Min divergence: -0.13E-05 at (   1,   1,  20)
       Max VN number:   0.74E-02 at (  13,   1,  14)
 
       Time Step    6300   June 26, 2020  16:18:50
       Step Size:    0.791E-01 s, Total Time:     498.06 s
       Pressure Iterations:      1
       Maximum Velocity Error:  0.35E-17 on Mesh   2 at (  21   1  18)
       Maximum Pressure Error:  0.87E-07 on Mesh   1 at (   1   1  11)
       ---------------------------------------------------------------
       Mesh    1
       Max CFL number:  0.35E-01 at (   1,   1,   8)
       Max divergence:  0.11E-05 at (   4,   1,   1)
       Min divergence: -0.15E-05 at (  20,   1,  20)
       Max VN number:   0.64E-02 at (   6,   1,   2)
       Mesh    2
       Max CFL number:  0.35E-01 at (  20,   1,  18)
       Max divergence:  0.15E-05 at (  16,   1,   1)
       Min divergence: -0.15E-05 at (   4,   1,  20)
       Max VN number:   0.54E-02 at (  17,   1,   3)
       Mesh    3
       Max CFL number:  0.42E-01 at (  20,   1,  15)
       Max divergence:  0.12E-05 at (   3,   1,   1)
       Min divergence: -0.13E-05 at (   1,   1,  20)
       Max VN number:   0.69E-02 at (  13,   1,  13)
 
       Time Step    6400   June 26, 2020  16:18:51
       Step Size:    0.791E-01 s, Total Time:     505.96 s
       Pressure Iterations:      1
       Maximum Velocity Error:  0.17E-17 on Mesh   1 at (  21   1   1)
       Maximum Pressure Error:  0.11E-06 on Mesh   3 at (  20   1  15)
       ---------------------------------------------------------------
       Mesh    1
       Max CFL number:  0.36E-01 at (   1,   1,  10)
       Max divergence:  0.11E-05 at (   4,   1,   1)
       Min divergence: -0.14E-05 at (  20,   1,  20)
       Max VN number:   0.62E-02 at (   3,   1,  18)
       Mesh    2
       Max CFL number:  0.35E-01 at (  20,   1,  18)
       Max divergence:  0.13E-05 at (  15,   1,   1)
       Min divergence: -0.14E-05 at (   1,   1,  20)
       Max VN number:   0.50E-02 at (  15,   1,   3)
       Mesh    3
       Max CFL number:  0.45E-01 at (  20,   1,  13)
       Max divergence:  0.13E-05 at (  20,   1,  10)
       Min divergence: -0.13E-05 at (   3,   1,  20)
       Max VN number:   0.68E-02 at (  14,   1,  12)
 
       Time Step    6500   June 26, 2020  16:18:53
       Step Size:    0.791E-01 s, Total Time:     513.87 s
       Pressure Iterations:      1
       Maximum Velocity Error:  0.17E-17 on Mesh   1 at (  21   1  15)
       Maximum Pressure Error:  0.13E-06 on Mesh   3 at (  20   1  13)
       ---------------------------------------------------------------
       Mesh    1
       Max CFL number:  0.32E-01 at (   7,   1,  14)
       Max divergence:  0.11E-05 at (   2,   1,  12)
       Min divergence: -0.15E-05 at (   2,   1,  20)
       Max VN number:   0.60E-02 at (   3,   1,  13)
       Mesh    2
       Max CFL number:  0.33E-01 at (  20,   1,  18)
       Max divergence:  0.12E-05 at (  13,   1,   1)
       Min divergence: -0.13E-05 at (   2,   1,  20)
       Max VN number:   0.50E-02 at (  20,   1,  19)
       Mesh    3
       Max CFL number:  0.41E-01 at (  20,   1,  11)
       Max divergence:  0.12E-05 at (  19,   1,   1)
       Min divergence: -0.17E-05 at (  19,   1,  10)
       Max VN number:   0.67E-02 at (  16,   1,  12)
 
       Time Step    6600   June 26, 2020  16:18:54
       Step Size:    0.791E-01 s, Total Time:     521.78 s
       Pressure Iterations:      1
       Maximum Velocity Error:  0.17E-17 on Mesh   1 at (  21   1   4)
       Maximum Pressure Error:  0.10E-06 on Mesh   3 at (  20   1  11)
       ---------------------------------------------------------------
       Mesh    1
       Max CFL number:  0.31E-01 at (   9,   1,  14)
       Max divergence:  0.10E-05 at (  19,   1,   1)
       Min divergence: -0.15E-05 at (   2,   1,  20)
       Max VN number:   0.58E-02 at (   5,   1,   2)
       Mesh    2
       Max CFL number:  0.31E-01 at (  11,   1,  18)
       Max divergence:  0.11E-05 at (  12,   1,   1)
       Min divergence: -0.12E-05 at (   4,   1,  20)
       Max VN number:   0.47E-02 at (  13,   1,   2)
       Mesh    3
       Max CFL number:  0.38E-01 at (   8,   1,   7)
       Max divergence:  0.12E-05 at (  19,   1,   1)
       Min divergence: -0.16E-05 at (  20,   1,   9)
       Max VN number:   0.61E-02 at (  19,   1,   8)
 
       Time Step    6700   June 26, 2020  16:18:56
       Step Size:    0.791E-01 s, Total Time:     529.68 s
       Pressure Iterations:      1
       Maximum Velocity Error:  0.17E-17 on Mesh   1 at (  21   1   3)
       Maximum Pressure Error:  0.65E-07 on Mesh   3 at (  20   1  10)
       ---------------------------------------------------------------
       Mesh    1
       Max CFL number:  0.30E-01 at (  10,   1,  15)
       Max divergence:  0.10E-05 at (  10,   1,  15)
       Min divergence: -0.14E-05 at (   2,   1,  20)
       Max VN number:   0.56E-02 at (  18,   1,  19)
       Mesh    2
       Max CFL number:  0.29E-01 at (  13,   1,  18)
       Max divergence:  0.10E-05 at (  11,   1,   1)
       Min divergence: -0.12E-05 at (   8,   1,  20)
       Max VN number:   0.46E-02 at (  12,   1,   2)
       Mesh    3
       Max CFL number:  0.34E-01 at (   7,   1,   7)
       Max divergence:  0.17E-05 at (  20,   1,   6)
       Min divergence: -0.15E-05 at (  20,   1,   8)
       Max VN number:   0.60E-02 at (  19,   1,   7)
 
       Time Step    6800   June 26, 2020  16:18:58
       Step Size:    0.791E-01 s, Total Time:     537.59 s
       Pressure Iterations:      1
       Maximum Velocity Error:  0.17E-17 on Mesh   2 at (  21   1  20)
       Maximum Pressure Error:  0.41E-07 on Mesh   3 at (  14   1   1)
       ---------------------------------------------------------------
       Mesh    1
       Max CFL number:  0.30E-01 at (  11,   1,  15)
       Max divergence:  0.13E-05 at (  11,   1,  15)
       Min divergence: -0.14E-05 at (   1,   1,  15)
       Max VN number:   0.56E-02 at (  19,   1,  19)
       Mesh    2
       Max CFL number:  0.28E-01 at (  17,   1,  18)
       Max divergence:  0.96E-06 at (   3,   1,   1)
       Min divergence: -0.11E-05 at (   9,   1,  20)
       Max VN number:   0.46E-02 at (  12,   1,  19)
       Mesh    3
       Max CFL number:  0.31E-01 at (   6,   1,   7)
       Max divergence:  0.15E-05 at (  20,   1,   5)
       Min divergence: -0.14E-05 at (  20,   1,   7)
       Max VN number:   0.56E-02 at (  18,   1,   6)
 
       Time Step    6900   June 26, 2020  16:18:58
       Step Size:    0.791E-01 s, Total Time:     545.49 s
       Pressure Iterations:      1
       Maximum Velocity Error:  0.17E-17 on Mesh   1 at (  21   1   4)
       Maximum Pressure Error:  0.30E-07 on Mesh   3 at (  11   1   1)
       ---------------------------------------------------------------
       Mesh    1
       Max CFL number:  0.30E-01 at (  12,   1,  15)
       Max divergence:  0.13E-05 at (  12,   1,  15)
       Min divergence: -0.14E-05 at (   1,   1,  16)
       Max VN number:   0.58E-02 at (  11,   1,  16)
       Mesh    2
       Max CFL number:  0.27E-01 at (  19,   1,  18)
       Max divergence:  0.92E-06 at (   3,   1,   1)
       Min divergence: -0.10E-05 at (  10,   1,  20)
       Max VN number:   0.47E-02 at (   1,   1,  19)
       Mesh    3
       Max CFL number:  0.28E-01 at (   5,   1,   7)
       Max divergence:  0.19E-05 at (  20,   1,   5)
       Min divergence: -0.12E-05 at (  20,   1,   7)
       Max VN number:   0.57E-02 at (  19,   1,   8)
 
       Time Step    7000   June 26, 2020  16:19:00
       Step Size:    0.791E-01 s, Total Time:     553.40 s
       Pressure Iterations:      1
       Maximum Velocity Error:  0.43E-18 on Mesh   1 at (  21   1   8)
       Maximum Pressure Error:  0.19E-07 on Mesh   3 at (  10   1   1)
       ---------------------------------------------------------------
       Mesh    1
       Max CFL number:  0.29E-01 at (  13,   1,  14)
       Max divergence:  0.17E-05 at (  11,   1,  16)
       Min divergence: -0.14E-05 at (  12,   1,  17)
       Max VN number:   0.57E-02 at (  13,   1,  14)
       Mesh    2
       Max CFL number:  0.24E-01 at (  20,   1,  18)
       Max divergence:  0.87E-06 at (   2,   1,   1)
       Min divergence: -0.93E-06 at (  12,   1,  20)
       Max VN number:   0.49E-02 at (   1,   1,  19)
       Mesh    3
       Max CFL number:  0.27E-01 at (   5,   1,   7)
       Max divergence:  0.15E-05 at (  20,   1,   5)
       Min divergence: -0.11E-05 at (  19,   1,   6)
       Max VN number:   0.55E-02 at (  18,   1,   7)
 
       Time Step    7100   June 26, 2020  16:19:01
       Step Size:    0.791E-01 s, Total Time:     561.30 s
       Pressure Iterations:      1
       Maximum Velocity Error:  0.87E-18 on Mesh   1 at (  21   1  15)
       Maximum Pressure Error:  0.15E-07 on Mesh   1 at (  20   1  20)
       ---------------------------------------------------------------
       Mesh    1
       Max CFL number:  0.29E-01 at (  14,   1,  14)
       Max divergence:  0.14E-05 at (  12,   1,  16)
       Min divergence: -0.14E-05 at (  14,   1,  16)
       Max VN number:   0.60E-02 at (  12,   1,  16)
       Mesh    2
       Max CFL number:  0.22E-01 at (  20,   1,  18)
       Max divergence:  0.81E-06 at (   2,   1,   1)
       Min divergence: -0.85E-06 at (  13,   1,  20)
       Max VN number:   0.50E-02 at (   1,   1,  19)
       Mesh    3
       Max CFL number:  0.28E-01 at (   4,   1,   8)
       Max divergence:  0.15E-05 at (  20,   1,   4)
       Min divergence: -0.11E-05 at (  20,   1,   6)
       Max VN number:   0.55E-02 at (  19,   1,  19)
 
       Time Step    7200   June 26, 2020  16:19:02
       Step Size:    0.791E-01 s, Total Time:     569.21 s
       Pressure Iterations:      1
       Maximum Velocity Error:  0.17E-17 on Mesh   2 at (  21   1  19)
       Maximum Pressure Error:  0.99E-08 on Mesh   1 at (  20   1  20)
       ---------------------------------------------------------------
       Mesh    1
       Max CFL number:  0.29E-01 at (  14,   1,  14)
       Max divergence:  0.12E-05 at (  12,   1,  16)
       Min divergence: -0.12E-05 at (  13,   1,  17)
       Max VN number:   0.58E-02 at (  14,   1,  14)
       Mesh    2
       Max CFL number:  0.23E-01 at (  20,   1,   9)
       Max divergence:  0.76E-06 at (   1,   1,   1)
       Min divergence: -0.77E-06 at (  14,   1,  20)
       Max VN number:   0.47E-02 at (   1,   1,  19)
       Mesh    3
       Max CFL number:  0.28E-01 at (   4,   1,   8)
       Max divergence:  0.16E-05 at (  20,   1,   4)
       Min divergence: -0.10E-05 at (   6,   1,   6)
       Max VN number:   0.56E-02 at (  19,   1,  19)
 
       Time Step    7300   June 26, 2020  16:19:03
       Step Size:    0.791E-01 s, Total Time:     577.12 s
       Pressure Iterations:      1
       Maximum Velocity Error:  0.17E-17 on Mesh   2 at (  21   1  19)
       Maximum Pressure Error:  0.91E-08 on Mesh   2 at (   1   1  20)
       ---------------------------------------------------------------
       Mesh    1
       Max CFL number:  0.27E-01 at (  15,   1,  13)
       Max divergence:  0.98E-06 at (   2,   1,  16)
       Min divergence: -0.11E-05 at (   2,   1,  18)
       Max VN number:   0.55E-02 at (  15,   1,  13)
       Mesh    2
       Max CFL number:  0.26E-01 at (  20,   1,   9)
       Max divergence:  0.73E-06 at (   3,   1,   1)
       Min divergence: -0.83E-06 at (   1,   1,  20)
       Max VN number:   0.47E-02 at (   2,   1,  19)
       Mesh    3
       Max CFL number:  0.29E-01 at (   3,   1,   8)
       Max divergence:  0.13E-05 at (  20,   1,   4)
       Min divergence: -0.11E-05 at (   6,   1,   6)
       Max VN number:   0.56E-02 at (  19,   1,  19)
 
       Time Step    7400   June 26, 2020  16:19:05
       Step Size:    0.791E-01 s, Total Time:     585.02 s
       Pressure Iterations:      1
       Maximum Velocity Error:  0.11E-18 on Mesh   1 at (  21   1  16)
       Maximum Pressure Error:  0.12E-07 on Mesh   3 at (   3   1   7)
       ---------------------------------------------------------------
       Mesh    1
       Max CFL number:  0.26E-01 at (  15,   1,  13)
       Max divergence:  0.80E-06 at (   1,   1,   8)
       Min divergence: -0.98E-06 at (   2,   1,  18)
       Max VN number:   0.58E-02 at (  15,   1,  14)
       Mesh    2
       Max CFL number:  0.26E-01 at (  20,   1,   9)
       Max divergence:  0.70E-06 at (   6,   1,   1)
       Min divergence: -0.94E-06 at (   1,   1,  20)
       Max VN number:   0.48E-02 at (   2,   1,  19)
       Mesh    3
       Max CFL number:  0.29E-01 at (   2,   1,   8)
       Max divergence:  0.11E-05 at (   4,   1,   5)
       Min divergence: -0.12E-05 at (   5,   1,   6)
       Max VN number:   0.55E-02 at (  19,   1,  19)
 
       Time Step    7500   June 26, 2020  16:19:06
       Step Size:    0.791E-01 s, Total Time:     592.93 s
       Pressure Iterations:      1
       Maximum Velocity Error:  0.87E-18 on Mesh   1 at (  21   1  13)
       Maximum Pressure Error:  0.96E-08 on Mesh   3 at (  10   1   1)
       ---------------------------------------------------------------
       Mesh    1
       Max CFL number:  0.25E-01 at (  15,   1,  13)
       Max divergence:  0.83E-06 at (   2,   1,  17)
       Min divergence: -0.10E-05 at (  16,   1,  15)
       Max VN number:   0.58E-02 at (  15,   1,  14)
       Mesh    2
       Max CFL number:  0.27E-01 at (  20,   1,   9)
       Max divergence:  0.75E-06 at (  20,   1,   7)
       Min divergence: -0.90E-06 at (   1,   1,  20)
       Max VN number:   0.48E-02 at (   2,   1,  19)
       Mesh    3
       Max CFL number:  0.28E-01 at (   2,   1,   8)
       Max divergence:  0.13E-05 at (   4,   1,   5)
       Min divergence: -0.11E-05 at (   4,   1,   6)
       Max VN number:   0.58E-02 at (   3,   1,   7)
 
       Time Step    7590   June 26, 2020  16:19:07
       Step Size:    0.369E-01 s, Total Time:     600.00 s
       Pressure Iterations:      1
       Maximum Velocity Error:  0.87E-18 on Mesh   1 at (  21   1  12)
       Maximum Pressure Error:  0.52E-08 on Mesh   3 at (  20   1   3)
       ---------------------------------------------------------------
       Mesh    1
       Max CFL number:  0.11E-01 at (  17,   1,  12)
       Max divergence:  0.86E-06 at (   1,   1,  17)
       Min divergence: -0.96E-06 at (  16,   1,  15)
       Max VN number:   0.24E-02 at (  17,   1,  15)
       Mesh    2
       Max CFL number:  0.12E-01 at (  20,   1,   9)
       Max divergence:  0.97E-06 at (  20,   1,   7)
       Min divergence: -0.84E-06 at (   1,   1,  20)
       Max VN number:   0.24E-02 at (  20,   1,   9)
       Mesh    3
       Max CFL number:  0.12E-01 at (   2,   1,   8)
       Max divergence:  0.12E-05 at (   3,   1,   5)
       Min divergence: -0.11E-05 at (  20,   1,  20)
       Max VN number:   0.27E-02 at (   2,   1,   7)
 


 Time Stepping Wall Clock Time (s):       81.726
 Total Elapsed Wall Clock Time (s):       84.501

STOP: FDS completed successfully (CHID: pressure_rise_glmat)
