
 Fire Dynamics Simulator

 Current Date     : June 26, 2020  16:17:47
 Revision         : -AMG
 Revision Date    : Fri Jun 26 15:19:14 2020 +0200
 Compiler         : Intel ifort 19.0.5.281
 Compilation Date : Jun 26, 2020 15:25:32

 MPI Enabled;    Number of MPI Processes:      10
 OpenMP Enabled; Number of OpenMP Threads:      2

 MPI version: 3.1
 MPI library version: Intel(R) MPI Library 2018 Update 1 for Linux* OS


 Job TITLE        : Simple tunnel with pressure boundary
 Job ID string    : pressure_boundary_scarc


 Grid Dimensions, Mesh     1

   Cells in the X Direction            20
   Cells in the Y Direction            20
   Cells in the Z Direction            20
   Number of Grid Cells              8000


 Physical Dimensions, Mesh     1

   Length (m)                       1.000
   Width  (m)                       1.000
   Height (m)                       1.000
   Initial Time Step (s)            0.079

 Grid Dimensions, Mesh     2

   Cells in the X Direction            20
   Cells in the Y Direction            20
   Cells in the Z Direction            20
   Number of Grid Cells              8000


 Physical Dimensions, Mesh     2

   Length (m)                       1.000
   Width  (m)                       1.000
   Height (m)                       1.000
   Initial Time Step (s)            0.079

 Grid Dimensions, Mesh     3

   Cells in the X Direction            20
   Cells in the Y Direction            20
   Cells in the Z Direction            20
   Number of Grid Cells              8000


 Physical Dimensions, Mesh     3

   Length (m)                       1.000
   Width  (m)                       1.000
   Height (m)                       1.000
   Initial Time Step (s)            0.079

 Grid Dimensions, Mesh     4

   Cells in the X Direction            20
   Cells in the Y Direction            20
   Cells in the Z Direction            20
   Number of Grid Cells              8000


 Physical Dimensions, Mesh     4

   Length (m)                       1.000
   Width  (m)                       1.000
   Height (m)                       1.000
   Initial Time Step (s)            0.079

 Grid Dimensions, Mesh     5

   Cells in the X Direction            20
   Cells in the Y Direction            20
   Cells in the Z Direction            20
   Number of Grid Cells              8000


 Physical Dimensions, Mesh     5

   Length (m)                       1.000
   Width  (m)                       1.000
   Height (m)                       1.000
   Initial Time Step (s)            0.079

 Grid Dimensions, Mesh     6

   Cells in the X Direction            20
   Cells in the Y Direction            20
   Cells in the Z Direction            20
   Number of Grid Cells              8000


 Physical Dimensions, Mesh     6

   Length (m)                       1.000
   Width  (m)                       1.000
   Height (m)                       1.000
   Initial Time Step (s)            0.079

 Grid Dimensions, Mesh     7

   Cells in the X Direction            20
   Cells in the Y Direction            20
   Cells in the Z Direction            20
   Number of Grid Cells              8000


 Physical Dimensions, Mesh     7

   Length (m)                       1.000
   Width  (m)                       1.000
   Height (m)                       1.000
   Initial Time Step (s)            0.079

 Grid Dimensions, Mesh     8

   Cells in the X Direction            20
   Cells in the Y Direction            20
   Cells in the Z Direction            20
   Number of Grid Cells              8000


 Physical Dimensions, Mesh     8

   Length (m)                       1.000
   Width  (m)                       1.000
   Height (m)                       1.000
   Initial Time Step (s)            0.079

 Grid Dimensions, Mesh     9

   Cells in the X Direction            20
   Cells in the Y Direction            20
   Cells in the Z Direction            20
   Number of Grid Cells              8000


 Physical Dimensions, Mesh     9

   Length (m)                       1.000
   Width  (m)                       1.000
   Height (m)                       1.000
   Initial Time Step (s)            0.079

 Grid Dimensions, Mesh    10

   Cells in the X Direction            20
   Cells in the Y Direction            20
   Cells in the Z Direction            20
   Number of Grid Cells              8000


 Physical Dimensions, Mesh    10

   Length (m)                       1.000
   Width  (m)                       1.000
   Height (m)                       1.000
   Initial Time Step (s)            0.079

Total Number of Grid Cells         80000


 Miscellaneous Parameters

   Simulation Start Time (s)          0.0
   Simulation End Time (s)           30.0
   LES Calculation
   Eddy Viscosity:           Deardorff Model (C_DEARDORFF = 0.10)
   Near-wall Eddy Viscosity: Smagorinsky with Van Driest damping (C_SMAGORINSKY = 0.20)
   Turbulent Prandtl Number:         0.50
   Turbulent Schmidt Number:         0.50
   Ambient Temperature (C):         20.00


 Mass Fraction Transformation Matrix to Convert Species Mixtures (Columns) to Primitive Species (Rows)

                         AIR       PROPANE   PRODUCTS
   PROPANE               0.000000  1.000000  0.000000
   NITROGEN              0.762470  0.000000  0.716510
   OXYGEN                0.230997  0.000000  0.000000
   CARBON DIOXIDE        0.000591  0.000000  0.178848
   CARBON MONOXIDE       0.000000  0.000000  0.000000
   WATER VAPOR           0.005941  0.000000  0.104039
   SOOT                  0.000000  0.000000  0.000603
   HYDROGEN              0.000000  0.000000  0.000000


 Primitive Species Information

   PROPANE
   Gas Species
   Molecular Weight (g/mol)            44.09562
   Ambient Density (kg/m^3)            1.833
   Enthalpy of Formation (J/kg)       -2.37E+06

   NITROGEN
   Gas Species
   Molecular Weight (g/mol)            28.01340
   Ambient Density (kg/m^3)            1.165
   Enthalpy of Formation (J/kg)        0.00E+00

   OXYGEN
   Gas Species
   Molecular Weight (g/mol)            31.99880
   Ambient Density (kg/m^3)            1.330
   Enthalpy of Formation (J/kg)        0.00E+00

   CARBON DIOXIDE
   Gas Species
   Molecular Weight (g/mol)            44.00950
   Ambient Density (kg/m^3)            1.830
   Enthalpy of Formation (J/kg)       -8.94E+06

   CARBON MONOXIDE
   Gas Species
   Molecular Weight (g/mol)            28.01010
   Ambient Density (kg/m^3)            1.164
   Enthalpy of Formation (J/kg)       -3.95E+06

   WATER VAPOR
   Gas Species
   Molecular Weight (g/mol)            18.01528
   Ambient Density (kg/m^3)            0.749
   Enthalpy of Formation (J/kg)       -1.34E+07

   SOOT
   Gas Species
   Molecular Weight (g/mol)            10.91042
   Ambient Density (kg/m^3)            0.454
   Enthalpy of Formation (J/kg)        0.00E+00

   HYDROGEN
   Gas Species
   Molecular Weight (g/mol)             2.01588
   Ambient Density (kg/m^3)            0.084
   Enthalpy of Formation (J/kg)        0.00E+00


 Tracked (Lumped) Species Information

   AIR
   Molecular Weight (g/mol)            28.75199
   Ambient Density (kg/m^3)            1.195
   Initial Mass Fraction               1.000
   Enthalpy of Formation (J/kg)     -8.50E+04

   Sub Species                    Mass Fraction     Mole Fraction
   NITROGEN                       7.624701E-01      7.825730E-01
   OXYGEN                         2.309974E-01      2.075589E-01
   CARBON DIOXIDE                 5.914651E-04      3.864120E-04
   WATER VAPOR                    5.940984E-03      9.481679E-03
 
     Viscosity (kg/m/s) Ambient,  293 K:  1.80E-05
                                  500 K:  2.61E-05
                                 1000 K:  4.13E-05
                                 1500 K:  5.37E-05
   Therm. Cond. (W/m/K) Ambient,  293 K:  2.56E-02
                                  500 K:  3.81E-02
                                 1000 K:  6.69E-02
                                 1500 K:  9.25E-02
        Enthalpy (J/kg) Ambient,  293 K: -9.01E+04
                                  500 K:  1.22E+05
                                 1000 K:  6.72E+05
                                 1500 K:  1.27E+06
    Spec. Heat (J/kg/K) Ambient,  293 K:  1.02E+03
                                  500 K:  1.04E+03
                                 1000 K:  1.16E+03
                                 1500 K:  1.23E+03
   Diff. Coeff. (m^2/s) Ambient,  293 K:  1.99E-05
                                  500 K:  4.96E-05
                                 1000 K:  1.58E-04
                                 1500 K:  3.09E-04

   PROPANE
   Molecular Weight (g/mol)            44.09562
   Ambient Density (kg/m^3)            1.833
   Initial Mass Fraction               0.000
   Enthalpy of Formation (J/kg)     -2.37E+06

   Sub Species                    Mass Fraction     Mole Fraction
   PROPANE                        1.000000E+00      1.000000E+00
 
     Viscosity (kg/m/s) Ambient,  293 K:  8.08E-06
                                  500 K:  1.31E-05
                                 1000 K:  2.23E-05
                                 1500 K:  2.96E-05
   Therm. Cond. (W/m/K) Ambient,  293 K:  1.66E-02
                                  500 K:  4.18E-02
                                 1000 K:  1.11E-01
                                 1500 K:  1.72E-01
        Enthalpy (J/kg) Ambient,  293 K: -2.38E+06
                                  500 K: -1.95E+06
                                 1000 K: -2.77E+05
                                 1500 K:  1.90E+06
    Spec. Heat (J/kg/K) Ambient,  293 K:  1.65E+03
                                  500 K:  2.55E+03
                                 1000 K:  3.96E+03
                                 1500 K:  4.67E+03
   Diff. Coeff. (m^2/s) Ambient,  293 K:  1.11E-05
                                  500 K:  2.86E-05
                                 1000 K:  9.32E-05
                                 1500 K:  1.83E-04

   PRODUCTS
   Molecular Weight (g/mol)            28.19160
   Ambient Density (kg/m^3)            1.172
   Initial Mass Fraction               0.000
   Enthalpy of Formation (J/kg)     -3.00E+06

   Sub Species                    Mass Fraction     Mole Fraction
   NITROGEN                       7.165100E-01      7.210680E-01
   CARBON DIOXIDE                 1.788479E-01      1.145664E-01
   CARBON MONOXIDE                0.000000E+00      0.000000E+00
   WATER VAPOR                    1.040393E-01      1.628081E-01
   SOOT                           6.027786E-04      1.557528E-03
 
     Viscosity (kg/m/s) Ambient,  293 K:  1.61E-05
                                  500 K:  2.39E-05
                                 1000 K:  3.89E-05
                                 1500 K:  5.14E-05
   Therm. Cond. (W/m/K) Ambient,  293 K:  2.34E-02
                                  500 K:  3.62E-02
                                 1000 K:  6.71E-02
                                 1500 K:  9.63E-02
        Enthalpy (J/kg) Ambient,  293 K: -3.00E+06
                                  500 K: -2.77E+06
                                 1000 K: -2.16E+06
                                 1500 K: -1.48E+06
    Spec. Heat (J/kg/K) Ambient,  293 K:  1.09E+03
                                  500 K:  1.14E+03
                                 1000 K:  1.30E+03
                                 1500 K:  1.40E+03
   Diff. Coeff. (m^2/s) Ambient,  293 K:  1.95E-05
                                  500 K:  4.95E-05
                                 1000 K:  1.60E-04
                                 1500 K:  3.15E-04


 Gas Phase Reaction Information

   Fuel                                           Heat of Combustion (kJ/kg)
   PROPANE                                                        45998.9362

   Stoichiometry

   Primitive Species Stoich. Coeff.
   Species ID                                                          Molar
   PROPANE                                                         -1.000000
   OXYGEN                                                          -4.962615
   CARBON DIOXIDE                                                   2.963626
   WATER VAPOR                                                      3.997979
   SOOT                                                             0.040416

   Tracked (Lumped) Species Stoich. Coeff.
   Species ID                                             Molar         Mass
   AIR                                               -23.909431   -15.589840
   PROPANE                                            -1.000000    -1.000000
   PRODUCTS                                           25.948837    16.589840

   Reaction Kinetics

   Arrhenius Parameters
   Pre-exponential:    Infinite
   Activation Energy:  N/A

   ODE Solver:  EXPLICIT EULER
   Extinction Model:  EXTINCTION 2
   Auto-Ignition Temperature (K):       0.0
   Critical Flame Temperature (K):   1720.2


 Material Information


 Surface Conditions

   0 INERT (DEFAULT)

   1 FIRE
     HRR Per Unit Area (kW/m2)       1000.0
     PROPANE Mass Flux (kg/s/m2)   2.17E-02

   2 OPEN
     Passive Vent to Atmosphere

   3 MIRROR
     Symmetry Plane

   4 INTERPOLATED

   5 PERIODIC

   6 HVAC

   7 MASSLESS TRACER

   8 DROPLET

   9 EVACUATION_OUTFLOW
     Normal Velocity (m/s)         0.000

  10 MASSLESS TARGET

  11 PERIODIC WIND


 Slice File Information, Mesh     1

   Sampling Interval (s)             0.030

   1 Nodes:   0  20  10  10   0  20, Quantity: VELOCITY
   2 Nodes:   0  20  10  10   0  20, Quantity: U-VELOCITY
   3 Nodes:   0  20  10  10   0  20, Quantity: V-VELOCITY
   4 Nodes:   0  20  10  10   0  20, Quantity: W-VELOCITY
   5 Nodes:   0  20  10  10   0  20, Quantity: H
   6 Nodes:   0  20  10  10   0  20, Quantity: PRESSURE
   7 Nodes:   0  20  10  10   0  20, Quantity: TEMPERATURE


 Radiation Model Information

   Number of control angles  104
   Time step increment         3
   Angle increment             5
   Theta band N_phi   Solid angle
     1:        4     0.120
     2:       12     0.114
     3:       16     0.127
     4:       20     0.120
     5:       20     0.120
     6:       16     0.127
     7:       12     0.114
     8:        4     0.120
   Using gray gas absorption.
   Mean beam length  0.100 m
 
 

 Run Time Diagnostics

       Time Step       1   June 26, 2020  16:17:47
       Step Size:    0.791E-01 s, Total Time:       0.08 s
       Pressure Iterations:     10
       Maximum Velocity Error:  0.86E-01 on Mesh   9 at (  21   3   4)
       Maximum Pressure Error:  0.32E+00 on Mesh   5 at (  20  11   1)
       ---------------------------------------------------------------
       Mesh    1
       Max CFL number:  0.29E-01 at (  15,  18,  14)
       Max divergence:  0.10E-05 at (  11,   3,   5)
       Min divergence: -0.15E-05 at (  17,   3,  11)
       Max VN number:   0.26E-01 at (  12,  14,  11)
       Mesh    2
       Max CFL number:  0.28E-01 at (  18,  16,  17)
       Max divergence:  0.80E-06 at (  10,   4,  19)
       Min divergence: -0.14E-05 at (  18,  10,  10)
       Max VN number:   0.25E-01 at (  14,  18,  14)
       Mesh    3
       Max CFL number:  0.29E-01 at (   2,   8,   9)
       Max divergence:  0.79E-06 at (  14,  19,   7)
       Min divergence: -0.16E-05 at (  17,  13,  10)
       Max VN number:   0.26E-01 at (  16,  15,   8)
       Mesh    4
       Max CFL number:  0.29E-01 at (  10,  10,   7)
       Max divergence:  0.71E-06 at (   8,   2,  18)
       Min divergence: -0.18E-05 at (  12,  10,   9)
       Max VN number:   0.26E-01 at (  13,  12,  16)
       Mesh    5
       Max CFL number:  0.30E-01 at (  14,  14,  16)
       Max divergence:  0.12E-05 at (  19,  12,   2)
       Min divergence: -0.51E-02 at (  20,   8,   1)
       Max VN number:   0.25E-01 at (  14,  14,  16)
       Mesh    6
       Max CFL number:  0.30E-01 at (  16,   6,  10)
       Max divergence:  0.13E-05 at (   5,  11,   2)
       Min divergence: -0.51E-02 at (   6,  13,   1)
       Max VN number:   0.26E-01 at (  10,   3,   3)
       Mesh    7
       Max CFL number:  0.29E-01 at (  11,  13,  10)
       Max divergence:  0.75E-06 at (  16,   3,  17)
       Min divergence: -0.18E-05 at (  19,   8,  12)
       Max VN number:   0.26E-01 at (  12,   8,  16)
       Mesh    8
       Max CFL number:  0.32E-01 at (  12,   4,  15)
       Max divergence:  0.89E-06 at (  11,   5,  11)
       Min divergence: -0.16E-05 at (   2,  14,   8)
       Max VN number:   0.26E-01 at (   4,  10,  18)
       Mesh    9
       Max CFL number:  0.71E-01 at (   6,  15,  10)
       Max divergence:  0.95E-06 at (  16,  18,   8)
       Min divergence: -0.15E-05 at (   1,  11,  14)
       Max VN number:   0.26E-01 at (   7,  17,   2)
       Mesh   10
       Max CFL number:  0.23E+00 at (  16,  18,   3)
       Max divergence:  0.10E-05 at (   6,   3,  19)
       Min divergence: -0.15E-05 at (   5,  13,   9)
       Max VN number:   0.24E-01 at (  15,  13,   8)
 
       Time Step       2   June 26, 2020  16:17:47
       Step Size:    0.791E-01 s, Total Time:       0.16 s
       Pressure Iterations:     10
       Maximum Velocity Error:  0.99E-01 on Mesh   9 at (  21  14  18)
       Maximum Pressure Error:  0.10E+03 on Mesh   5 at (  16  11   1)
       ---------------------------------------------------------------
       Mesh    1
       Max CFL number:  0.28E-01 at (  14,  18,  14)
       Max divergence:  0.10E-05 at (  11,   3,   5)
       Min divergence: -0.15E-05 at (  17,   3,  11)
       Max VN number:   0.26E-01 at (  12,  14,  11)
       Mesh    2
       Max CFL number:  0.28E-01 at (  18,  17,  17)
       Max divergence:  0.80E-06 at (  10,   4,  19)
       Min divergence: -0.14E-05 at (  18,  10,  10)
       Max VN number:   0.25E-01 at (  14,  18,  14)
       Mesh    3
       Max CFL number:  0.29E-01 at (   2,   9,   9)
       Max divergence:  0.79E-06 at (  14,  19,   7)
       Min divergence: -0.16E-05 at (  17,  13,  10)
       Max VN number:   0.26E-01 at (  16,  15,   8)
       Mesh    4
       Max CFL number:  0.28E-01 at (  11,  10,   7)
       Max divergence:  0.71E-06 at (   8,   2,  18)
       Min divergence: -0.18E-05 at (  12,  10,   9)
       Max VN number:   0.25E-01 at (  13,  12,  16)
       Mesh    5
       Max CFL number:  0.30E-01 at (  14,  15,  16)
       Max divergence:  0.36E+01 at (  16,  11,   1)
       Min divergence: -0.17E-05 at (   4,  14,   9)
       Max VN number:   0.25E-01 at (  14,  14,  16)
       Total Heat Release Rate:             11.521 kW
       Mesh    6
       Max CFL number:  0.30E-01 at (  16,   6,  11)
       Max divergence:  0.36E+01 at (   5,  11,   1)
       Min divergence: -0.18E-05 at (  16,   6,  11)
       Max VN number:   0.26E-01 at (  10,   3,   3)
       Total Heat Release Rate:             11.520 kW
       Mesh    7
       Max CFL number:  0.33E-01 at (  14,   7,   6)
       Max divergence:  0.75E-06 at (  16,   3,  17)
       Min divergence: -0.18E-05 at (  19,   8,  12)
       Max VN number:   0.25E-01 at (  12,   8,  16)
       Mesh    8
       Max CFL number:  0.58E-01 at (  11,   4,  15)
       Max divergence:  0.89E-06 at (  11,   5,  11)
       Min divergence: -0.16E-05 at (   2,  14,   8)
       Max VN number:   0.26E-01 at (   4,  10,  18)
       Mesh    9
       Max CFL number:  0.16E+00 at (   6,  15,  10)
       Max divergence:  0.96E-06 at (  16,  18,   8)
       Min divergence: -0.15E-05 at (   1,  11,  14)
       Max VN number:   0.28E-01 at (  19,   7,  18)
       Mesh   10
       Max CFL number:  0.36E+00 at (  16,  18,   3)
       Max divergence:  0.95E-06 at (  20,  16,  15)
       Min divergence: -0.16E-05 at (   5,  13,   9)
       Max VN number:   0.28E-01 at (   2,  17,   9)
 
       Time Step       3   June 26, 2020  16:17:47
       Step Size:    0.791E-01 s, Total Time:       0.24 s
       Pressure Iterations:     10
       Maximum Velocity Error:  0.86E-01 on Mesh   8 at (  21  13   8)
       Maximum Pressure Error:  0.48E+03 on Mesh   6 at (   2  10   1)
       ---------------------------------------------------------------
       Mesh    1
       Max CFL number:  0.28E-01 at (  14,  18,  14)
       Max divergence:  0.10E-05 at (  11,   3,   5)
       Min divergence: -0.15E-05 at (  17,   3,  11)
       Max VN number:   0.26E-01 at (  12,  14,  11)
       Mesh    2
       Max CFL number:  0.28E-01 at (  18,  17,  17)
       Max divergence:  0.81E-06 at (  10,   4,  19)
       Min divergence: -0.14E-05 at (  18,  10,  10)
       Max VN number:   0.25E-01 at (  14,  18,  14)
       Mesh    3
       Max CFL number:  0.29E-01 at (   2,   7,  11)
       Max divergence:  0.79E-06 at (  14,  19,   7)
       Min divergence: -0.16E-05 at (  17,  13,  10)
       Max VN number:   0.26E-01 at (  16,  15,   8)
       Mesh    4
       Max CFL number:  0.34E-01 at (   4,  12,   4)
       Max divergence:  0.73E-06 at (  19,  17,  18)
       Min divergence: -0.17E-05 at (  12,  10,   9)
       Max VN number:   0.25E-01 at (  13,  12,  16)
       Mesh    5
       Max CFL number:  0.52E+00 at (  15,  10,   1)
       Max divergence:  0.68E+01 at (  18,  11,   1)
       Min divergence: -0.18E-05 at (  14,  12,   3)
       Max VN number:   0.49E-01 at (  19,  12,   2)
       Total Heat Release Rate:             24.216 kW
       Radiation Loss to Boundaries:        -0.508 kW
       Mesh    6
       Max CFL number:  0.51E+00 at (   6,  10,   1)
       Max divergence:  0.67E+01 at (   3,  11,   1)
       Min divergence: -0.17E-05 at (   1,  17,   3)
       Max VN number:   0.49E-01 at (   5,  11,   2)
       Total Heat Release Rate:             24.205 kW
       Radiation Loss to Boundaries:        -0.508 kW
       Mesh    7
       Max CFL number:  0.47E-01 at (   3,   2,  18)
       Max divergence:  0.79E-06 at (  11,   2,   7)
       Min divergence: -0.18E-05 at (  19,   8,  12)
       Max VN number:   0.25E-01 at (  12,   8,  16)
       Mesh    8
       Max CFL number:  0.12E+00 at (  11,   4,  15)
       Max divergence:  0.88E-06 at (  11,   5,  11)
       Min divergence: -0.16E-05 at (   3,  14,  13)
       Max VN number:   0.26E-01 at (  19,  12,   5)
       Mesh    9
       Max CFL number:  0.26E+00 at (   6,  15,  10)
       Max divergence:  0.98E-06 at (  16,  18,   8)
       Min divergence: -0.14E-05 at (   1,  11,  14)
       Max VN number:   0.30E-01 at (  19,   7,  18)
       Mesh   10
       Max CFL number:  0.43E+00 at (  16,  18,   3)
       Max divergence:  0.12E-05 at (  20,  16,  15)
       Min divergence: -0.17E-05 at (   5,  13,   9)
       Max VN number:   0.52E-01 at (  11,  20,   1)
 
       Time Step       4   June 26, 2020  16:17:47
       Step Size:    0.791E-01 s, Total Time:       0.32 s
       Pressure Iterations:     10
       Maximum Velocity Error:  0.87E-01 on Mesh   8 at (  21  13   8)
       Maximum Pressure Error:  0.11E+04 on Mesh   5 at (  20  11   1)
       ---------------------------------------------------------------
       Mesh    1
       Max CFL number:  0.28E-01 at (  14,  18,  14)
       Max divergence:  0.11E-05 at (  11,   3,   5)
       Min divergence: -0.14E-05 at (  17,   3,  11)
       Max VN number:   0.26E-01 at (  12,  14,  11)
       Mesh    2
       Max CFL number:  0.28E-01 at (  18,  17,  17)
       Max divergence:  0.85E-06 at (  10,   4,  19)
       Min divergence: -0.14E-05 at (  19,  16,   6)
       Max VN number:   0.25E-01 at (  14,  18,  14)
       Mesh    3
       Max CFL number:  0.35E-01 at (   2,   7,  11)
       Max divergence:  0.84E-06 at (  14,  19,   7)
       Min divergence: -0.16E-05 at (  17,  13,  10)
       Max VN number:   0.26E-01 at (  16,  15,   8)
       Mesh    4
       Max CFL number:  0.54E-01 at (  19,  16,   1)
       Max divergence:  0.87E-06 at (  19,  17,  18)
       Min divergence: -0.16E-05 at (  12,  10,   9)
       Max VN number:   0.25E-01 at (  13,  12,  16)
       Mesh    5
       Max CFL number:  0.77E+00 at (  18,  11,   1)
       Max divergence:  0.68E+01 at (  16,  11,   1)
       Min divergence: -0.47E-01 at (  18,  11,   2)
       Max VN number:   0.12E+00 at (  15,  10,   1)
       Total Heat Release Rate:             37.283 kW
       Radiation Loss to Boundaries:       -10.185 kW
       Mesh    6
       Max CFL number:  0.77E+00 at (   3,  11,   1)
       Max divergence:  0.67E+01 at (   2,  16,   1)
       Min divergence: -0.30E-01 at (   3,   6,   2)
       Max VN number:   0.12E+00 at (   6,  10,   1)
       Total Heat Release Rate:             37.187 kW
       Radiation Loss to Boundaries:       -10.177 kW
       Mesh    7
       Max CFL number:  0.71E-01 at (   3,   2,  18)
       Max divergence:  0.90E-06 at (  11,   2,   7)
       Min divergence: -0.17E-05 at (  19,   8,  12)
       Max VN number:   0.25E-01 at (  19,  14,   9)
       Mesh    8
       Max CFL number:  0.19E+00 at (  11,   4,  15)
       Max divergence:  0.91E-06 at (  11,   5,  11)
       Min divergence: -0.15E-05 at (   3,  14,  13)
       Max VN number:   0.27E-01 at (  19,  12,   5)
       Mesh    9
       Max CFL number:  0.35E+00 at (   6,  15,  10)
       Max divergence:  0.10E-05 at (  16,  18,   8)
       Min divergence: -0.13E-05 at (   7,  17,   7)
       Max VN number:   0.44E-01 at (  20,   1,   1)
       Mesh   10
       Max CFL number:  0.46E+00 at (   3,  16,   9)
       Max divergence:  0.14E-05 at (  20,  16,  15)
       Min divergence: -0.20E-05 at (  20,  15,  14)
       Max VN number:   0.70E-01 at (  11,  20,   1)
 
       Time Step       5   June 26, 2020  16:17:47
       Step Size:    0.692E-01 s, Total Time:       0.39 s
       Pressure Iterations:     10
       Maximum Velocity Error:  0.13E+00 on Mesh   5 at (  21  10   1)
       Maximum Pressure Error:  0.12E+04 on Mesh   5 at (  15  10   1)
       ---------------------------------------------------------------
       Mesh    1
       Max CFL number:  0.26E-01 at (  15,  19,   7)
       Max divergence:  0.11E-05 at (  11,   3,   5)
       Min divergence: -0.14E-05 at (  17,   3,  11)
       Max VN number:   0.22E-01 at (  12,  14,  11)
       Mesh    2
       Max CFL number:  0.30E-01 at (   9,   9,   5)
       Max divergence:  0.86E-06 at (  10,   4,  19)
       Min divergence: -0.14E-05 at (  19,  16,   6)
       Max VN number:   0.22E-01 at (  14,  18,  14)
       Mesh    3
       Max CFL number:  0.45E-01 at (   2,   7,  11)
       Max divergence:  0.84E-06 at (  14,  19,   7)
       Min divergence: -0.16E-05 at (  17,  13,  10)
       Max VN number:   0.22E-01 at (  16,  15,   8)
       Mesh    4
       Max CFL number:  0.72E-01 at (  19,  16,   1)
       Max divergence:  0.87E-06 at (  19,  17,  18)
       Min divergence: -0.16E-05 at (  12,  10,   9)
       Max VN number:   0.22E-01 at (  13,  12,  16)
       Mesh    5
       Max CFL number:  0.90E+00 at (  15,  16,   1)
       Max divergence:  0.16E+01 at (  14,   5,   1)
       Min divergence: -0.46E+01 at (  20,  10,   1)
       Max VN number:   0.18E+00 at (  15,  16,   2)
       Total Heat Release Rate:             50.567 kW
       Radiation Loss to Boundaries:       -59.272 kW
       Mesh    6
       Max CFL number:  0.92E+00 at (   6,  16,   1)
       Max divergence:  0.15E+01 at (   6,   5,   1)
       Min divergence: -0.46E+01 at (   1,  10,   1)
       Max VN number:   0.18E+00 at (   6,   5,   2)
       Total Heat Release Rate:             50.060 kW
       Radiation Loss to Boundaries:       -58.870 kW
       Mesh    7
       Max CFL number:  0.98E-01 at (   3,   2,  18)
       Max divergence:  0.98E-06 at (   1,  19,   4)
       Min divergence: -0.17E-05 at (  19,   8,  12)
       Max VN number:   0.24E-01 at (  19,  14,   9)
       Mesh    8
       Max CFL number:  0.22E+00 at (  11,   4,  15)
       Max divergence:  0.86E-06 at (   8,  19,  17)
       Min divergence: -0.15E-05 at (   3,  14,  13)
       Max VN number:   0.26E-01 at (  20,   1,  20)
       Mesh    9
       Max CFL number:  0.33E+00 at (   7,  16,  10)
       Max divergence:  0.93E-06 at (   8,   8,  18)
       Min divergence: -0.14E-05 at (   3,  12,  15)
       Max VN number:   0.52E-01 at (  20,   1,   1)
       Mesh   10
       Max CFL number:  0.39E+00 at (   3,  16,   9)
       Max divergence:  0.18E-05 at (  20,   7,  15)
       Min divergence: -0.23E-05 at (  20,  15,  14)
       Max VN number:   0.69E-01 at (   8,   1,  20)
 
       Time Step       6   June 26, 2020  16:17:47
       Step Size:    0.571E-01 s, Total Time:       0.44 s
       Pressure Iterations:     10
       Maximum Velocity Error:  0.11E+00 on Mesh   5 at (  21  10   1)
       Maximum Pressure Error:  0.12E+04 on Mesh   5 at (  15  10   1)
       ---------------------------------------------------------------
       Mesh    1
       Max CFL number:  0.26E-01 at (  15,  19,   7)
       Max divergence:  0.11E-05 at (  11,   3,   5)
       Min divergence: -0.14E-05 at (  17,   3,  11)
       Max VN number:   0.18E-01 at (  12,  14,  11)
       Mesh    2
       Max CFL number:  0.33E-01 at (   9,   9,   5)
       Max divergence:  0.86E-06 at (  10,   4,  19)
       Min divergence: -0.14E-05 at (  19,  16,   6)
       Max VN number:   0.18E-01 at (  14,  18,  14)
       Mesh    3
       Max CFL number:  0.48E-01 at (   2,   7,  11)
       Max divergence:  0.84E-06 at (   7,   5,  18)
       Min divergence: -0.16E-05 at (  17,  13,  10)
       Max VN number:   0.18E-01 at (  16,  15,   8)
       Mesh    4
       Max CFL number:  0.62E-01 at (  18,  11,  19)
       Max divergence:  0.80E-06 at (  20,   4,   3)
       Min divergence: -0.18E-05 at (  12,  10,   9)
       Max VN number:   0.18E-01 at (  13,  12,  16)
       Mesh    5
       Max CFL number:  0.81E+00 at (  20,  17,   1)
       Max divergence:  0.97E+01 at (  15,   6,   1)
       Min divergence: -0.15E+01 at (  15,  16,   2)
       Max VN number:   0.24E+00 at (  15,  16,   2)
       Total Heat Release Rate:             15.555 kW
       Radiation Loss to Boundaries:        -6.027 kW
       Mesh    6
       Max CFL number:  0.90E+00 at (   7,  11,   1)
       Max divergence:  0.88E+01 at (   5,   5,   1)
       Min divergence: -0.13E+01 at (   6,   6,   2)
       Max VN number:   0.24E+00 at (   6,   5,   2)
       Total Heat Release Rate:             13.868 kW
       Radiation Loss to Boundaries:        -5.067 kW
       Mesh    7
       Max CFL number:  0.12E+00 at (   7,   8,   6)
       Max divergence:  0.84E-06 at (   1,  19,   4)
       Min divergence: -0.18E-05 at (  10,  15,  11)
       Max VN number:   0.20E-01 at (  19,  14,   9)
       Mesh    8
       Max CFL number:  0.20E+00 at (  11,   4,  15)
       Max divergence:  0.87E-06 at (  17,  16,  18)
       Min divergence: -0.16E-05 at (   7,  12,  15)
       Max VN number:   0.28E-01 at (  20,   1,  20)
       Mesh    9
       Max CFL number:  0.27E+00 at (   7,  16,  10)
       Max divergence:  0.94E-06 at (   8,   8,  18)
       Min divergence: -0.15E-05 at (   2,  14,   9)
       Max VN number:   0.47E-01 at (  20,   1,   1)
       Mesh   10
       Max CFL number:  0.30E+00 at (  10,   3,   5)
       Max divergence:  0.20E-05 at (  20,   7,  15)
       Min divergence: -0.25E-05 at (  20,  15,  14)
       Max VN number:   0.56E-01 at (   8,   1,  20)
 
       Time Step       7   June 26, 2020  16:17:47
       Step Size:    0.435E-01 s, Total Time:       0.49 s
       Pressure Iterations:     10
       Maximum Velocity Error:  0.46E-01 on Mesh   6 at (  21   1   1)
       Maximum Pressure Error:  0.61E+03 on Mesh   5 at (  15  10   1)
       ---------------------------------------------------------------
       Mesh    1
       Max CFL number:  0.26E-01 at (  15,  19,   7)
       Max divergence:  0.11E-05 at (  11,   3,   5)
       Min divergence: -0.13E-05 at (   3,  16,   8)
       Max VN number:   0.14E-01 at (  12,  14,  11)
       Mesh    2
       Max CFL number:  0.31E-01 at (   9,   9,   5)
       Max divergence:  0.83E-06 at (  10,   4,  19)
       Min divergence: -0.13E-05 at (  15,   7,   4)
       Max VN number:   0.13E-01 at (  14,  18,  14)
       Mesh    3
       Max CFL number:  0.42E-01 at (   2,   7,  11)
       Max divergence:  0.87E-06 at (  14,  19,   7)
       Min divergence: -0.14E-05 at (  14,  17,   5)
       Max VN number:   0.14E-01 at (  16,  15,   8)
       Mesh    4
       Max CFL number:  0.51E-01 at (   4,  12,   4)
       Max divergence:  0.10E-05 at (  20,   4,   3)
       Min divergence: -0.15E-05 at (  12,  10,   9)
       Max VN number:   0.14E-01 at (  13,  12,  16)
       Mesh    5
       Max CFL number:  0.89E+00 at (  15,   6,   1)
       Max divergence:  0.82E+01 at (  15,   5,   1)
       Min divergence: -0.45E+01 at (  15,  15,   2)
       Max VN number:   0.20E+00 at (  15,  16,   2)
       Total Heat Release Rate:             13.919 kW
       Radiation Loss to Boundaries:        -9.917 kW
       Mesh    6
       Max CFL number:  0.87E+00 at (   6,  15,   1)
       Max divergence:  0.75E+01 at (   6,  16,   1)
       Min divergence: -0.26E+01 at (   5,  16,   2)
       Max VN number:   0.19E+00 at (   6,  16,   2)
       Total Heat Release Rate:             11.644 kW
       Radiation Loss to Boundaries:        -6.083 kW
       Mesh    7
       Max CFL number:  0.12E+00 at (   9,   7,  19)
       Max divergence:  0.12E-05 at (   1,  19,   4)
       Min divergence: -0.15E-05 at (  10,  15,  11)
       Max VN number:   0.14E-01 at (  19,  14,   9)
       Mesh    8
       Max CFL number:  0.17E+00 at (  11,   4,  15)
       Max divergence:  0.91E-06 at (  17,  16,  18)
       Min divergence: -0.15E-05 at (   7,  12,  15)
       Max VN number:   0.24E-01 at (  20,   1,  20)
       Mesh    9
       Max CFL number:  0.20E+00 at (   8,  16,  10)
       Max divergence:  0.98E-06 at (   8,   8,  18)
       Min divergence: -0.14E-05 at (   2,  14,   9)
       Max VN number:   0.35E-01 at (  20,  20,   1)
       Mesh   10
       Max CFL number:  0.21E+00 at (  10,   3,   5)
       Max divergence:  0.22E-05 at (  20,   7,  15)
       Min divergence: -0.26E-05 at (  20,  15,  14)
       Max VN number:   0.39E-01 at (   8,   1,  20)
 
       Time Step       8   June 26, 2020  16:17:47
       Step Size:    0.435E-01 s, Total Time:       0.53 s
       Pressure Iterations:     10
       Maximum Velocity Error:  0.58E-01 on Mesh   5 at (  21  12   1)
       Maximum Pressure Error:  0.66E+03 on Mesh   5 at (  15  14   1)
       ---------------------------------------------------------------
       Mesh    1
       Max CFL number:  0.33E-01 at (  15,  19,   7)
       Max divergence:  0.11E-05 at (  11,   3,   5)
       Min divergence: -0.13E-05 at (   3,  16,   8)
       Max VN number:   0.14E-01 at (  12,  14,  11)
       Mesh    2
       Max CFL number:  0.38E-01 at (   9,   9,   5)
       Max divergence:  0.83E-06 at (  10,   4,  19)
       Min divergence: -0.13E-05 at (  15,   7,   4)
       Max VN number:   0.13E-01 at (  14,  18,  14)
       Mesh    3
       Max CFL number:  0.47E-01 at (   2,   7,  11)
       Max divergence:  0.87E-06 at (  14,  19,   7)
       Min divergence: -0.14E-05 at (  14,  17,   5)
       Max VN number:   0.14E-01 at (  16,  15,   8)
       Mesh    4
       Max CFL number:  0.59E-01 at (  14,  14,  11)
       Max divergence:  0.13E-05 at (  20,   4,   3)
       Min divergence: -0.15E-05 at (  12,  10,   9)
       Max VN number:   0.14E-01 at (  13,  12,  16)
       Mesh    5
       Max CFL number:  0.93E+00 at (  15,  16,   1)
       Max divergence:  0.13E+02 at (  15,  15,   1)
       Min divergence: -0.30E+01 at (  15,  14,   2)
       Max VN number:   0.24E+00 at (  15,  16,   2)
       Total Heat Release Rate:             13.892 kW
       Radiation Loss to Boundaries:        -5.429 kW
       Mesh    6
       Max CFL number:  0.91E+00 at (   6,   6,   1)
       Max divergence:  0.84E+01 at (   5,  16,   1)
       Min divergence: -0.19E+01 at (   5,  15,   2)
       Max VN number:   0.21E+00 at (   6,  16,   2)
       Total Heat Release Rate:             10.540 kW
       Radiation Loss to Boundaries:        -3.678 kW
       Mesh    7
       Max CFL number:  0.15E+00 at (   9,   7,  19)
       Max divergence:  0.13E-05 at (   1,  19,   4)
       Min divergence: -0.15E-05 at (  10,  15,  11)
       Max VN number:   0.17E-01 at (  20,   1,   1)
       Mesh    8
       Max CFL number:  0.17E+00 at (  11,   4,  15)
       Max divergence:  0.91E-06 at (  17,  16,  18)
       Min divergence: -0.15E-05 at (   7,  12,  15)
       Max VN number:   0.25E-01 at (  20,   1,  20)
       Mesh    9
       Max CFL number:  0.19E+00 at (   8,  16,  10)
       Max divergence:  0.95E-06 at (   8,   8,  18)
       Min divergence: -0.15E-05 at (   2,  14,   9)
       Max VN number:   0.32E-01 at (  11,   1,  20)
       Mesh   10
       Max CFL number:  0.20E+00 at (  10,   3,   5)
       Max divergence:  0.24E-05 at (  20,   7,  15)
       Min divergence: -0.27E-05 at (  20,  15,  14)
       Max VN number:   0.35E-01 at (   5,  20,  20)
 
       Time Step       9   June 26, 2020  16:17:48
       Step Size:    0.295E-01 s, Total Time:       0.56 s
       Pressure Iterations:     10
       Maximum Velocity Error:  0.71E-01 on Mesh   5 at (  21  10   1)
       Maximum Pressure Error:  0.16E+04 on Mesh   6 at (   5   9   1)
       ---------------------------------------------------------------
       Mesh    1
       Max CFL number:  0.28E-01 at (  15,  19,   7)
       Max divergence:  0.11E-05 at (  11,   3,   5)
       Min divergence: -0.13E-05 at (   3,  16,   8)
       Max VN number:   0.93E-02 at (  12,  14,  11)
       Mesh    2
       Max CFL number:  0.31E-01 at (   9,   9,   5)
       Max divergence:  0.82E-06 at (  10,   4,  19)
       Min divergence: -0.13E-05 at (  15,   7,   4)
       Max VN number:   0.90E-02 at (  14,  18,  14)
       Mesh    3
       Max CFL number:  0.38E-01 at (   2,   7,  11)
       Max divergence:  0.87E-06 at (  14,  19,   7)
       Min divergence: -0.14E-05 at (  14,  17,   5)
       Max VN number:   0.93E-02 at (  16,  15,   8)
       Mesh    4
       Max CFL number:  0.51E-01 at (  14,  14,  11)
       Max divergence:  0.15E-05 at (  20,   4,   3)
       Min divergence: -0.15E-05 at (  12,  10,   9)
       Max VN number:   0.94E-02 at (  13,  12,  16)
       Mesh    5
       Max CFL number:  0.89E+00 at (  15,  15,   1)
       Max divergence:  0.11E+02 at (  15,  15,   1)
       Min divergence: -0.18E+01 at (  16,  15,   2)
       Max VN number:   0.20E+00 at (  15,  15,   2)
       Total Heat Release Rate:             14.569 kW
       Radiation Loss to Boundaries:        -5.470 kW
       Mesh    6
       Max CFL number:  0.73E+00 at (   6,   6,   1)
       Max divergence:  0.20E+02 at (   5,   6,   1)
       Min divergence: -0.15E+01 at (   4,  15,   2)
       Max VN number:   0.17E+00 at (   5,  16,   2)
       Total Heat Release Rate:             21.820 kW
       Radiation Loss to Boundaries:        -4.519 kW
       Mesh    7
       Max CFL number:  0.10E+00 at (   9,   7,  19)
       Max divergence:  0.14E-05 at (   1,  19,   4)
       Min divergence: -0.15E-05 at (   6,   4,  18)
       Max VN number:   0.14E-01 at (  20,   1,   1)
       Mesh    8
       Max CFL number:  0.12E+00 at (  11,   4,  15)
       Max divergence:  0.90E-06 at (  17,  16,  18)
       Min divergence: -0.15E-05 at (   7,  12,  15)
       Max VN number:   0.17E-01 at (  15,   1,  20)
       Mesh    9
       Max CFL number:  0.12E+00 at (   8,  16,  10)
       Max divergence:  0.92E-06 at (   8,   8,  18)
       Min divergence: -0.15E-05 at (   2,  14,   9)
       Max VN number:   0.19E-01 at (  11,   1,  20)
       Mesh   10
       Max CFL number:  0.12E+00 at (  10,   3,   5)
       Max divergence:  0.24E-05 at (  20,   7,  15)
       Min divergence: -0.28E-05 at (  20,  15,  14)
       Max VN number:   0.20E-01 at (   7,   1,  20)
 
       Time Step      10   June 26, 2020  16:17:48
       Step Size:    0.253E-01 s, Total Time:       0.58 s
       Pressure Iterations:     10
       Maximum Velocity Error:  0.44E-01 on Mesh   5 at (  21   1  20)
       Maximum Pressure Error:  0.15E+04 on Mesh   6 at (   5   6   1)
       ---------------------------------------------------------------
       Mesh    1
       Max CFL number:  0.29E-01 at (  15,  19,   7)
       Max divergence:  0.11E-05 at (  11,   3,   5)
       Min divergence: -0.12E-05 at (  17,   3,  11)
       Max VN number:   0.80E-02 at (   6,   3,   7)
       Mesh    2
       Max CFL number:  0.32E-01 at (   9,   9,   5)
       Max divergence:  0.91E-06 at (  12,  13,  11)
       Min divergence: -0.13E-05 at (  19,  16,   6)
       Max VN number:   0.78E-02 at (  14,  18,  14)
       Mesh    3
       Max CFL number:  0.40E-01 at (   3,  11,   8)
       Max divergence:  0.91E-06 at (  14,  19,   7)
       Min divergence: -0.14E-05 at (  14,  17,   5)
       Max VN number:   0.80E-02 at (  19,  14,  18)
       Mesh    4
       Max CFL number:  0.55E-01 at (  14,  14,  11)
       Max divergence:  0.18E-05 at (  20,   4,   3)
       Min divergence: -0.12E-05 at (  12,  10,   9)
       Max VN number:   0.80E-02 at (  13,  12,  16)
       Mesh    5
       Max CFL number:  0.76E+00 at (  15,  15,   1)
       Max divergence:  0.11E+02 at (  15,  15,   1)
       Min divergence: -0.15E+01 at (  16,   7,   2)
       Max VN number:   0.20E+00 at (  15,  15,   2)
       Total Heat Release Rate:             15.196 kW
       Radiation Loss to Boundaries:        -5.878 kW
       Mesh    6
       Max CFL number:  0.91E+00 at (   5,   6,   1)
       Max divergence:  0.13E+02 at (   5,   6,   1)
       Min divergence: -0.11E+01 at (   3,   7,   2)
       Max VN number:   0.20E+00 at (   5,   6,   1)
       Total Heat Release Rate:             21.153 kW
       Radiation Loss to Boundaries:        -7.546 kW
       Mesh    7
       Max CFL number:  0.88E-01 at (   9,   7,  19)
       Max divergence:  0.16E-05 at (   1,  19,   4)
       Min divergence: -0.15E-05 at (   6,   4,  18)
       Max VN number:   0.12E-01 at (  20,   1,   1)
       Mesh    8
       Max CFL number:  0.97E-01 at (  11,   4,  15)
       Max divergence:  0.92E-06 at (  17,  16,  18)
       Min divergence: -0.14E-05 at (   7,  12,  15)
       Max VN number:   0.15E-01 at (  15,   1,  20)
       Mesh    9
       Max CFL number:  0.99E-01 at (   8,  16,  10)
       Max divergence:  0.91E-06 at (   8,   8,  18)
       Min divergence: -0.14E-05 at (   2,  14,   9)
       Max VN number:   0.15E-01 at (  11,   1,  20)
       Mesh   10
       Max CFL number:  0.10E+00 at (  10,   3,   5)
       Max divergence:  0.25E-05 at (  20,   7,  15)
       Min divergence: -0.28E-05 at (  20,  15,  14)
       Max VN number:   0.15E-01 at (   7,   1,  20)
 
       Time Step      20   June 26, 2020  16:17:48
       Step Size:    0.192E-01 s, Total Time:       0.80 s
       Pressure Iterations:      6
       Maximum Velocity Error:  0.20E-01 on Mesh   5 at (  21  16   2)
       Maximum Pressure Error:  0.48E+04 on Mesh   5 at (  16   8   1)
       ---------------------------------------------------------------
       Mesh    1
       Max CFL number:  0.11E+00 at (   5,  18,   7)
       Max divergence:  0.11E-05 at (   8,   4,   2)
       Min divergence: -0.12E-05 at (   3,  16,   8)
       Max VN number:   0.20E-01 at (  12,  20,   1)
       Mesh    2
       Max CFL number:  0.11E+00 at (  15,  16,  17)
       Max divergence:  0.99E-06 at (  12,  13,  11)
       Min divergence: -0.12E-05 at (  17,  10,   5)
       Max VN number:   0.20E-01 at (   7,  20,   1)
       Mesh    3
       Max CFL number:  0.11E+00 at (   4,  11,   8)
       Max divergence:  0.11E-05 at (  18,  13,  10)
       Min divergence: -0.11E-05 at (   7,  19,   3)
       Max VN number:   0.20E-01 at (   7,  20,   1)
       Mesh    4
       Max CFL number:  0.11E+00 at (  15,  14,  11)
       Max divergence:  0.16E-03 at (  20,   2,   4)
       Min divergence: -0.10E-05 at (   6,  17,   2)
       Max VN number:   0.19E-01 at (   6,  20,   1)
       Radiation Loss to Boundaries:         0.009 kW
       Mesh    5
       Max CFL number:  0.99E+00 at (  16,   7,   2)
       Max divergence:  0.20E+02 at (  20,  15,   1)
       Min divergence: -0.26E+01 at (  17,  15,   3)
       Max VN number:   0.28E+00 at (  17,   6,   3)
       Total Heat Release Rate:             56.034 kW
       Radiation Loss to Boundaries:       -17.494 kW
       Mesh    6
       Max CFL number:  0.86E+00 at (   3,   7,   4)
       Max divergence:  0.18E+02 at (   2,  15,   1)
       Min divergence: -0.75E+01 at (   4,   6,   2)
       Max VN number:   0.24E+00 at (   2,  15,   3)
       Total Heat Release Rate:             48.839 kW
       Radiation Loss to Boundaries:       -16.103 kW
       Mesh    7
       Max CFL number:  0.33E-01 at (   8,   7,  19)
       Max divergence:  0.17E-03 at (   1,  19,   4)
       Min divergence: -0.13E-05 at (   6,   4,  18)
       Max VN number:   0.63E-02 at (  15,   8,  16)
       Radiation Loss to Boundaries:         0.003 kW
       Mesh    8
       Max CFL number:  0.32E-01 at (   3,  14,  11)
       Max divergence:  0.10E-05 at (  16,  12,  18)
       Min divergence: -0.13E-05 at (   7,  12,  15)
       Max VN number:   0.62E-02 at (  16,  11,  15)
       Mesh    9
       Max CFL number:  0.31E-01 at (  19,  11,   7)
       Max divergence:  0.10E-05 at (  14,   2,   3)
       Min divergence: -0.13E-05 at (   2,  14,   9)
       Max VN number:   0.60E-02 at (   9,  17,   5)
       Mesh   10
       Max CFL number:  0.30E-01 at (  17,  13,   4)
       Max divergence:  0.28E-05 at (  20,   7,  15)
       Min divergence: -0.30E-05 at (  20,  15,  14)
       Max VN number:   0.10E-01 at (  20,  12,   5)
 
       Time Step      30   June 26, 2020  16:17:49
       Step Size:    0.134E-01 s, Total Time:       0.95 s
       Pressure Iterations:      8
       Maximum Velocity Error:  0.25E-01 on Mesh   5 at (  21   6   2)
       Maximum Pressure Error:  0.42E+04 on Mesh   5 at (  16  13   1)
       ---------------------------------------------------------------
       Mesh    1
       Max CFL number:  0.11E+00 at (   3,   6,   9)
       Max divergence:  0.12E-05 at (   8,   4,   2)
       Min divergence: -0.13E-05 at (   3,   2,  18)
       Max VN number:   0.26E-01 at (  11,  20,   1)
       Mesh    2
       Max CFL number:  0.10E+00 at (  20,   7,  11)
       Max divergence:  0.11E-05 at (   7,   8,  10)
       Min divergence: -0.11E-05 at (   5,   3,  18)
       Max VN number:   0.27E-01 at (   7,  20,   1)
       Mesh    3
       Max CFL number:  0.10E+00 at (   5,  13,  18)
       Max divergence:  0.13E-05 at (  19,   1,   8)
       Min divergence: -0.11E-05 at (   6,  17,  15)
       Max VN number:   0.26E-01 at (   6,  20,   1)
       Mesh    4
       Max CFL number:  0.10E+00 at (  20,  13,  13)
       Max divergence:  0.39E-03 at (  20,  12,   4)
       Min divergence:  0.23E-05 at (   1,   5,  20)
       Max VN number:   0.25E-01 at (  19,   1,  20)
       Radiation Loss to Boundaries:         0.032 kW
       Mesh    5
       Max CFL number:  0.76E+00 at (  16,   8,   4)
       Max divergence:  0.43E+02 at (  16,  12,   1)
       Min divergence: -0.53E+01 at (  19,   7,   2)
       Max VN number:   0.25E+00 at (  15,   7,   2)
       Total Heat Release Rate:             97.440 kW
       Radiation Loss to Boundaries:       -27.758 kW
       Mesh    6
       Max CFL number:  0.96E+00 at (   3,   7,   4)
       Max divergence:  0.18E+02 at (   5,  11,   1)
       Min divergence: -0.49E+01 at (   3,  14,   4)
       Max VN number:   0.27E+00 at (   2,   8,   6)
       Total Heat Release Rate:             61.808 kW
       Radiation Loss to Boundaries:       -20.015 kW
       Mesh    7
       Max CFL number:  0.13E-01 at (   1,  18,   1)
       Max divergence:  0.37E-03 at (   1,   8,   5)
       Min divergence:  0.31E-05 at (  20,  17,   1)
       Max VN number:   0.43E-02 at (  15,   8,  16)
       Radiation Loss to Boundaries:         0.032 kW
       Mesh    8
       Max CFL number:  0.92E-02 at (   3,  14,  11)
       Max divergence:  0.11E-05 at (  16,  12,  18)
       Min divergence: -0.12E-05 at (  11,  17,   2)
       Max VN number:   0.43E-02 at (  16,  11,  15)
       Mesh    9
       Max CFL number:  0.69E-02 at (  19,  11,   7)
       Max divergence:  0.11E-05 at (  14,   2,   3)
       Min divergence: -0.11E-05 at (   2,  14,   9)
       Max VN number:   0.41E-02 at (   9,  17,   5)
       Mesh   10
       Max CFL number:  0.11E-01 at (  20,   9,   7)
       Max divergence:  0.29E-05 at (  20,   7,  15)
       Min divergence: -0.30E-05 at (  20,  15,  14)
       Max VN number:   0.73E-02 at (  20,  12,   5)
 
       Time Step      40   June 26, 2020  16:17:49
       Step Size:    0.108E-01 s, Total Time:       1.07 s
       Pressure Iterations:      5
       Maximum Velocity Error:  0.16E-01 on Mesh   5 at (  21  10   4)
       Maximum Pressure Error:  0.15E+04 on Mesh   5 at (  14   7   8)
       ---------------------------------------------------------------
       Mesh    1
       Max CFL number:  0.90E-01 at (  15,  14,  12)
       Max divergence:  0.11E-05 at (   4,  16,   5)
       Min divergence: -0.12E-05 at (  14,   6,   9)
       Max VN number:   0.23E-01 at (   8,   1,   1)
       Mesh    2
       Max CFL number:  0.89E-01 at (   8,  15,   7)
       Max divergence:  0.12E-05 at (  14,  13,  11)
       Min divergence: -0.11E-05 at (   1,  11,  18)
       Max VN number:   0.23E-01 at (   7,  20,   1)
       Mesh    3
       Max CFL number:  0.89E-01 at (   2,  15,   3)
       Max divergence:  0.12E-03 at (  20,   2,   8)
       Min divergence: -0.32E-06 at (   8,  15,   2)
       Max VN number:   0.23E-01 at (   6,  20,   1)
       Radiation Loss to Boundaries:         0.010 kW
       Mesh    4
       Max CFL number:  0.94E-01 at (  20,  10,  13)
       Max divergence:  0.11E-02 at (  20,  11,   5)
       Min divergence:  0.25E-04 at (   1,   1,   2)
       Max VN number:   0.25E-01 at (  18,   1,  20)
       Radiation Loss to Boundaries:         0.094 kW
       Mesh    5
       Max CFL number:  0.76E+00 at (  20,  14,   5)
       Max divergence:  0.25E+02 at (  15,   8,   1)
       Min divergence: -0.25E+01 at (  16,   8,   8)
       Max VN number:   0.25E+00 at (  15,   7,   7)
       Total Heat Release Rate:            123.813 kW
       Radiation Loss to Boundaries:       -36.703 kW
       Mesh    6
       Max CFL number:  0.98E+00 at (   2,  14,   6)
       Max divergence:  0.19E+02 at (   5,  10,   1)
       Min divergence: -0.51E+01 at (   3,   7,  10)
       Max VN number:   0.36E+00 at (   3,  14,   9)
       Total Heat Release Rate:             75.224 kW
       Radiation Loss to Boundaries:       -24.151 kW
       Mesh    7
       Max CFL number:  0.17E-01 at (   1,  18,   1)
       Max divergence:  0.98E-03 at (   1,  11,   6)
       Min divergence:  0.21E-04 at (  20,  20,   2)
       Max VN number:   0.34E-02 at (  15,   8,  16)
       Radiation Loss to Boundaries:         0.098 kW
       Mesh    8
       Max CFL number:  0.13E-01 at (   4,  14,  11)
       Max divergence:  0.99E-04 at (   1,   9,   8)
       Min divergence: -0.66E-06 at (  20,   2,   2)
       Max VN number:   0.34E-02 at (  16,  11,  15)
       Radiation Loss to Boundaries:         0.009 kW
       Mesh    9
       Max CFL number:  0.13E-01 at (  18,  11,   7)
       Max divergence:  0.11E-05 at (  14,   2,   3)
       Min divergence: -0.11E-05 at (   2,  14,   9)
       Max VN number:   0.33E-02 at (  14,  12,   4)
       Mesh   10
       Max CFL number:  0.13E-01 at (  17,  13,   4)
       Max divergence:  0.29E-05 at (  20,   7,  15)
       Min divergence: -0.30E-05 at (  20,  15,  14)
       Max VN number:   0.59E-02 at (  20,  12,   5)
 
       Time Step      50   June 26, 2020  16:17:50
       Step Size:    0.968E-02 s, Total Time:       1.17 s
       Pressure Iterations:      4
       Maximum Velocity Error:  0.16E-01 on Mesh   5 at (  21  14   7)
       Maximum Pressure Error:  0.12E+04 on Mesh   5 at (  13   7  11)
       ---------------------------------------------------------------
       Mesh    1
       Max CFL number:  0.83E-01 at (   8,   4,   8)
       Max divergence:  0.93E-06 at (   5,  10,  16)
       Min divergence: -0.13E-05 at (  14,   6,   9)
       Max VN number:   0.22E-01 at (  10,  20,   1)
       Mesh    2
       Max CFL number:  0.83E-01 at (   9,  15,   6)
       Max divergence:  0.17E-05 at (  19,   1,  12)
       Min divergence: -0.10E-05 at (   4,  15,   4)
       Max VN number:   0.22E-01 at (   6,  20,   1)
       Mesh    3
       Max CFL number:  0.83E-01 at (   2,  15,   3)
       Max divergence:  0.15E-03 at (  20,   1,   9)
       Min divergence:  0.45E-06 at (   1,  17,   2)
       Max VN number:   0.22E-01 at (  20,  20,  20)
       Radiation Loss to Boundaries:         0.012 kW
       Mesh    4
       Max CFL number:  0.94E-01 at (  20,  10,  13)
       Max divergence:  0.13E-02 at (  20,  12,   6)
       Min divergence:  0.39E-04 at (   1,   6,   3)
       Max VN number:   0.26E-01 at (  20,   1,  20)
       Radiation Loss to Boundaries:         0.152 kW
       Mesh    5
       Max CFL number:  0.91E+00 at (  14,   7,   7)
       Max divergence:  0.17E+02 at (  15,  15,   1)
       Min divergence: -0.43E+01 at (  19,  13,   6)
       Max VN number:   0.31E+00 at (  19,   7,   7)
       Total Heat Release Rate:            121.473 kW
       Radiation Loss to Boundaries:       -38.734 kW
       Mesh    6
       Max CFL number:  0.84E+00 at (   3,   6,  12)
       Max divergence:  0.17E+02 at (   4,   5,   1)
       Min divergence: -0.38E+01 at (   3,  14,  12)
       Max VN number:   0.30E+00 at (   3,  14,  13)
       Total Heat Release Rate:             60.336 kW
       Radiation Loss to Boundaries:       -13.750 kW
       Mesh    7
       Max CFL number:  0.23E-01 at (   1,  18,   1)
       Max divergence:  0.10E-02 at (   1,  10,   6)
       Min divergence:  0.35E-04 at (  20,  15,   2)
       Max VN number:   0.30E-02 at (  15,   8,  16)
       Radiation Loss to Boundaries:         0.114 kW
       Mesh    8
       Max CFL number:  0.16E-01 at (   8,   7,  14)
       Max divergence:  0.11E-03 at (   1,  20,   9)
       Min divergence: -0.26E-06 at (  20,   2,   2)
       Max VN number:   0.30E-02 at (  16,  11,  15)
       Radiation Loss to Boundaries:         0.010 kW
       Mesh    9
       Max CFL number:  0.16E-01 at (  18,  11,   7)
       Max divergence:  0.13E-05 at (   1,  19,  10)
       Min divergence: -0.10E-05 at (   5,  11,   6)
       Max VN number:   0.30E-02 at (  14,  12,   4)
       Mesh   10
       Max CFL number:  0.16E-01 at (   8,   3,  17)
       Max divergence:  0.29E-05 at (  20,   7,  15)
       Min divergence: -0.30E-05 at (  20,  15,  14)
       Max VN number:   0.54E-02 at (  20,  12,   5)
 
       Time Step      60   June 26, 2020  16:17:50
       Step Size:    0.968E-02 s, Total Time:       1.26 s
       Pressure Iterations:      7
       Maximum Velocity Error:  0.23E-01 on Mesh   5 at (  21  10   8)
       Maximum Pressure Error:  0.28E+04 on Mesh   5 at (  19  10   7)
       ---------------------------------------------------------------
       Mesh    1
       Max CFL number:  0.86E-01 at (  12,  12,  11)
       Max divergence:  0.11E-05 at (   6,   4,   2)
       Min divergence: -0.96E-06 at (   5,  16,   8)
       Max VN number:   0.23E-01 at (   7,   1,   1)
       Mesh    2
       Max CFL number:  0.87E-01 at (   7,  15,  16)
       Max divergence:  0.68E-04 at (  19,   1,  12)
       Min divergence: -0.71E-06 at (   4,  15,   4)
       Max VN number:   0.23E-01 at (   6,  20,   1)
       Radiation Loss to Boundaries:         0.006 kW
       Mesh    3
       Max CFL number:  0.89E-01 at (   9,  14,  16)
       Max divergence:  0.36E-03 at (  20,  19,  10)
       Min divergence:  0.20E-05 at (   1,   1,   3)
       Max VN number:   0.25E-01 at (  20,  20,  20)
       Radiation Loss to Boundaries:         0.035 kW
       Mesh    4
       Max CFL number:  0.11E+00 at (  20,   9,  18)
       Max divergence:  0.24E-02 at (  20,  10,   6)
       Min divergence:  0.96E-04 at (   1,   1,   3)
       Max VN number:   0.33E-01 at (  20,   1,  20)
       Radiation Loss to Boundaries:         0.240 kW
       Mesh    5
       Max CFL number:  0.93E+00 at (  15,  13,   7)
       Max divergence:  0.23E+02 at (  15,   7,   1)
       Min divergence: -0.56E+01 at (  19,   7,  11)
       Max VN number:   0.36E+00 at (  19,   7,  11)
       Total Heat Release Rate:            149.773 kW
       Radiation Loss to Boundaries:       -46.647 kW
       Mesh    6
       Max CFL number:  0.86E+00 at (   1,  10,  11)
       Max divergence:  0.27E+02 at (   1,   9,   5)
       Min divergence: -0.94E+01 at (   1,  10,  11)
       Max VN number:   0.34E+00 at (   1,  10,  11)
       Total Heat Release Rate:             68.712 kW
       Radiation Loss to Boundaries:       -14.179 kW
       Mesh    7
       Max CFL number:  0.29E-01 at (   1,  18,   1)
       Max divergence:  0.14E-02 at (   1,  11,   6)
       Min divergence:  0.87E-04 at (  20,  15,   4)
       Max VN number:   0.31E-02 at (   1,   1,   1)
       Radiation Loss to Boundaries:         0.174 kW
       Mesh    8
       Max CFL number:  0.19E-01 at (   7,   7,  14)
       Max divergence:  0.31E-03 at (   1,   3,  10)
       Min divergence:  0.16E-05 at (  20,  19,   3)
       Max VN number:   0.29E-02 at (  11,   2,  19)
       Radiation Loss to Boundaries:         0.035 kW
       Mesh    9
       Max CFL number:  0.19E-01 at (  18,  11,   7)
       Max divergence:  0.62E-04 at (   1,   1,  12)
       Min divergence: -0.86E-06 at (   8,  19,   2)
       Max VN number:   0.31E-02 at (  14,  12,   4)
       Radiation Loss to Boundaries:         0.005 kW
       Mesh   10
       Max CFL number:  0.19E-01 at (   8,   3,  17)
       Max divergence:  0.29E-05 at (  20,   7,  15)
       Min divergence: -0.29E-05 at (  20,  15,  14)
       Max VN number:   0.55E-02 at (  20,  12,   5)
 
       Time Step      70   June 26, 2020  16:17:51
       Step Size:    0.686E-02 s, Total Time:       1.35 s
       Pressure Iterations:      6
       Maximum Velocity Error:  0.18E-01 on Mesh   5 at (  21  10  10)
       Maximum Pressure Error:  0.66E+04 on Mesh   5 at (  19  10  10)
       ---------------------------------------------------------------
       Mesh    1
       Max CFL number:  0.73E-01 at (  10,   6,  14)
       Max divergence:  0.47E-04 at (  19,   1,  16)
       Min divergence: -0.80E-06 at (  11,  10,   6)
       Max VN number:   0.21E-01 at (   7,   1,   1)
       Radiation Loss to Boundaries:         0.002 kW
       Mesh    2
       Max CFL number:  0.73E-01 at (  10,   2,  11)
       Max divergence:  0.20E-03 at (  20,  20,  13)
       Min divergence:  0.96E-07 at (   4,   3,   4)
       Max VN number:   0.21E-01 at (  20,   1,  20)
       Radiation Loss to Boundaries:         0.017 kW
       Mesh    3
       Max CFL number:  0.75E-01 at (  20,   3,  17)
       Max divergence:  0.61E-03 at (  20,  17,  11)
       Min divergence:  0.87E-05 at (   1,   7,   4)
       Max VN number:   0.22E-01 at (  20,  20,  20)
       Radiation Loss to Boundaries:         0.072 kW
       Mesh    4
       Max CFL number:  0.10E+00 at (  20,   6,  18)
       Max divergence:  0.24E-02 at (  20,  10,   9)
       Min divergence:  0.21E-03 at (   1,   6,   5)
       Max VN number:   0.33E-01 at (  20,   1,  20)
       Radiation Loss to Boundaries:         0.316 kW
       Mesh    5
       Max CFL number:  0.89E+00 at (  20,   9,   7)
       Max divergence:  0.23E+02 at (  16,   6,   5)
       Min divergence: -0.40E+01 at (  15,   9,  10)
       Max VN number:   0.30E+00 at (  20,   8,  10)
       Total Heat Release Rate:            208.264 kW
       Radiation Loss to Boundaries:       -67.689 kW
       Mesh    6
       Max CFL number:  0.79E+00 at (   2,   9,  13)
       Max divergence:  0.21E+02 at (   5,  13,   1)
       Min divergence: -0.50E+01 at (   1,  10,  15)
       Max VN number:   0.29E+00 at (   2,   9,  13)
       Total Heat Release Rate:             73.629 kW
       Radiation Loss to Boundaries:       -16.534 kW
       Mesh    7
       Max CFL number:  0.17E-01 at (   1,  18,   1)
       Max divergence:  0.13E-02 at (   1,  10,   7)
       Min divergence:  0.99E-04 at (  20,  15,   3)
       Max VN number:   0.21E-02 at (  11,  18,  18)
       Radiation Loss to Boundaries:         0.181 kW
       Mesh    8
       Max CFL number:  0.70E-02 at (   7,   7,  14)
       Max divergence:  0.46E-03 at (   1,  19,  11)
       Min divergence:  0.89E-05 at (  20,  16,   4)
       Max VN number:   0.21E-02 at (  11,   2,  19)
       Radiation Loss to Boundaries:         0.057 kW
       Mesh    9
       Max CFL number:  0.80E-02 at (  18,  11,   7)
       Max divergence:  0.20E-03 at (   1,   1,  14)
       Min divergence: -0.14E-06 at (  19,  19,   3)
       Max VN number:   0.22E-02 at (  14,  12,   4)
       Radiation Loss to Boundaries:         0.016 kW
       Mesh   10
       Max CFL number:  0.84E-02 at (   8,   3,  17)
       Max divergence:  0.40E-04 at (   1,   1,  16)
       Min divergence: -0.26E-05 at (  20,   9,   7)
       Max VN number:   0.40E-02 at (  20,  12,   5)
       Radiation Loss to Boundaries:         0.002 kW
 
       Time Step      80   June 26, 2020  16:17:52
       Step Size:    0.754E-02 s, Total Time:       1.42 s
       Pressure Iterations:      9
       Maximum Velocity Error:  0.24E-01 on Mesh   5 at (  21   9  11)
       Maximum Pressure Error:  0.26E+04 on Mesh   5 at (  16   8   9)
       ---------------------------------------------------------------
       Mesh    1
       Max CFL number:  0.96E-01 at (  12,  19,  17)
       Max divergence:  0.47E-04 at (  18,   1,  16)
       Min divergence: -0.55E-06 at (  18,  18,   3)
       Max VN number:   0.31E-01 at (   3,  20,   1)
       Radiation Loss to Boundaries:         0.002 kW
       Mesh    2
       Max CFL number:  0.96E-01 at (  20,   9,  14)
       Max divergence:  0.21E-03 at (  19,  20,  14)
       Min divergence:  0.47E-06 at (   1,   5,   3)
       Max VN number:   0.30E-01 at (  14,   1,  20)
       Radiation Loss to Boundaries:         0.017 kW
       Mesh    3
       Max CFL number:  0.95E-01 at (  19,  18,  16)
       Max divergence:  0.65E-03 at (  20,  17,  11)
       Min divergence:  0.11E-04 at (   1,   7,   4)
       Max VN number:   0.30E-01 at (  19,  20,  20)
       Radiation Loss to Boundaries:         0.076 kW
       Mesh    4
       Max CFL number:  0.14E+00 at (  20,   6,  18)
       Max divergence:  0.26E-02 at (  20,  10,   5)
       Min divergence:  0.24E-03 at (   1,   6,   5)
       Max VN number:   0.47E-01 at (  20,   1,  20)
       Radiation Loss to Boundaries:         0.340 kW
       Mesh    5
       Max CFL number:  0.82E+00 at (  19,   9,   8)
       Max divergence:  0.26E+02 at (  15,  13,   1)
       Min divergence: -0.53E+01 at (  19,   8,   4)
       Max VN number:   0.30E+00 at (  16,   7,   9)
       Total Heat Release Rate:            214.716 kW
       Radiation Loss to Boundaries:       -65.148 kW
       Mesh    6
       Max CFL number:  0.76E+00 at (   1,  10,  11)
       Max divergence:  0.20E+02 at (   5,  15,   1)
       Min divergence: -0.42E+01 at (   1,  10,  12)
       Max VN number:   0.27E+00 at (   4,  16,  20)
       Total Heat Release Rate:             59.221 kW
       Radiation Loss to Boundaries:       -11.943 kW
       Mesh    7
       Max CFL number:  0.17E-01 at (   1,  18,   1)
       Max divergence:  0.13E-02 at (   1,  11,   8)
       Min divergence:  0.10E-03 at (  20,  15,   3)
       Max VN number:   0.23E-02 at (  11,  18,  18)
       Radiation Loss to Boundaries:         0.181 kW
       Mesh    8
       Max CFL number:  0.53E-02 at (  14,   7,   8)
       Max divergence:  0.46E-03 at (   1,  19,  11)
       Min divergence:  0.10E-04 at (  20,  16,   4)
       Max VN number:   0.23E-02 at (  11,   2,  19)
       Radiation Loss to Boundaries:         0.059 kW
       Mesh    9
       Max CFL number:  0.66E-02 at (   7,  15,  10)
       Max divergence:  0.20E-03 at (   1,   1,  14)
       Min divergence:  0.36E-06 at (  19,  19,   3)
       Max VN number:   0.24E-02 at (  14,  12,   4)
       Radiation Loss to Boundaries:         0.017 kW
       Mesh   10
       Max CFL number:  0.84E-02 at (  20,  12,  10)
       Max divergence:  0.41E-04 at (   1,   1,  16)
       Min divergence: -0.25E-05 at (  20,   9,   7)
       Max VN number:   0.43E-02 at (  20,  12,   5)
       Radiation Loss to Boundaries:         0.002 kW
 
       Time Step      90   June 26, 2020  16:17:52
       Step Size:    0.754E-02 s, Total Time:       1.50 s
       Pressure Iterations:      4
       Maximum Velocity Error:  0.14E-01 on Mesh   5 at (  21   5  13)
       Maximum Pressure Error:  0.23E+04 on Mesh   5 at (  13  10   7)
       ---------------------------------------------------------------
       Mesh    1
       Max CFL number:  0.92E-01 at (  11,   8,  10)
       Max divergence:  0.13E-03 at (  20,  20,  17)
       Min divergence: -0.15E-06 at (   7,   6,   5)
       Max VN number:   0.29E-01 at (   2,  20,   1)
       Radiation Loss to Boundaries:         0.006 kW
       Mesh    2
       Max CFL number:  0.92E-01 at (  20,   9,  14)
       Max divergence:  0.41E-03 at (  20,  19,  15)
       Min divergence:  0.18E-05 at (   1,   2,   3)
       Max VN number:   0.29E-01 at (  11,  20,   1)
       Radiation Loss to Boundaries:         0.032 kW
       Mesh    3
       Max CFL number:  0.94E-01 at (  20,   5,  18)
       Max divergence:  0.70E-03 at (  20,   3,  12)
       Min divergence:  0.26E-04 at (   1,   6,   5)
       Max VN number:   0.30E-01 at (  20,   1,  20)
       Radiation Loss to Boundaries:         0.094 kW
       Mesh    4
       Max CFL number:  0.18E+00 at (  20,   7,  18)
       Max divergence:  0.34E-02 at (  20,  10,   8)
       Min divergence:  0.34E-03 at (   1,   6,  20)
       Max VN number:   0.57E-01 at (  20,   1,  20)
       Radiation Loss to Boundaries:         0.423 kW
       Mesh    5
       Max CFL number:  0.93E+00 at (  14,   8,  11)
       Max divergence:  0.34E+02 at (  16,  12,  10)
       Min divergence: -0.65E+01 at (  20,  13,   3)
       Max VN number:   0.36E+00 at (  14,   8,  12)
       Total Heat Release Rate:            229.425 kW
       Radiation Loss to Boundaries:       -67.923 kW
       Mesh    6
       Max CFL number:  0.60E+00 at (   4,   9,  18)
       Max divergence:  0.20E+02 at (   5,  16,   1)
       Min divergence: -0.42E+01 at (   4,   9,  18)
       Max VN number:   0.27E+00 at (   5,  17,  20)
       Total Heat Release Rate:             52.330 kW
       Radiation Loss to Boundaries:        -8.013 kW
       Mesh    7
       Max CFL number:  0.23E-01 at (   1,  18,   1)
       Max divergence:  0.15E-02 at (   1,  11,   6)
       Min divergence:  0.16E-03 at (  20,   9,   4)
       Max VN number:   0.26E-02 at (   1,  20,   1)
       Radiation Loss to Boundaries:         0.217 kW
       Mesh    8
       Max CFL number:  0.69E-02 at (  17,  16,   8)
       Max divergence:  0.52E-03 at (   1,   3,  12)
       Min divergence:  0.17E-04 at (  20,  16,   4)
       Max VN number:   0.23E-02 at (  11,   2,  19)
       Radiation Loss to Boundaries:         0.060 kW
       Mesh    9
       Max CFL number:  0.70E-02 at (  18,  11,   7)
       Max divergence:  0.30E-03 at (   1,  20,  15)
       Min divergence:  0.17E-05 at (  20,  19,   4)
       Max VN number:   0.24E-02 at (  14,  12,   4)
       Radiation Loss to Boundaries:         0.024 kW
       Mesh   10
       Max CFL number:  0.70E-02 at (   8,   3,  17)
       Max divergence:  0.13E-03 at (   1,  20,  17)
       Min divergence: -0.22E-05 at (  20,   9,   7)
       Max VN number:   0.43E-02 at (  20,  12,   5)
       Radiation Loss to Boundaries:         0.006 kW
 
       Time Step     100   June 26, 2020  16:17:53
       Step Size:    0.754E-02 s, Total Time:       1.57 s
       Pressure Iterations:      7
       Maximum Velocity Error:  0.25E-01 on Mesh   5 at (  21   3  18)
       Maximum Pressure Error:  0.41E+04 on Mesh   5 at (  15   7  13)
       ---------------------------------------------------------------
       Mesh    1
       Max CFL number:  0.90E-01 at (   3,  12,  10)
       Max divergence:  0.27E-03 at (  20,  20,  18)
       Min divergence:  0.81E-06 at (   2,   7,   6)
       Max VN number:   0.28E-01 at (  12,  20,   1)
       Radiation Loss to Boundaries:         0.010 kW
       Mesh    2
       Max CFL number:  0.92E-01 at (   3,   9,  14)
       Max divergence:  0.44E-03 at (  20,   2,  16)
       Min divergence:  0.54E-05 at (   1,   2,   5)
       Max VN number:   0.28E-01 at (  20,   1,  20)
       Radiation Loss to Boundaries:         0.035 kW
       Mesh    3
       Max CFL number:  0.96E-01 at (  20,   5,  18)
       Max divergence:  0.79E-03 at (  20,   3,  13)
       Min divergence:  0.53E-04 at (   1,   5,   6)
       Max VN number:   0.31E-01 at (  20,   1,  20)
       Radiation Loss to Boundaries:         0.123 kW
       Mesh    4
       Max CFL number:  0.26E+00 at (  20,   7,  19)
       Max divergence:  0.17E+00 at (  20,   6,  17)
       Min divergence: -0.34E-01 at (  19,   7,  16)
       Max VN number:   0.73E-01 at (  20,   1,  20)
       Total Heat Release Rate:              0.002 kW
       Radiation Loss to Boundaries:         0.479 kW
       Mesh    5
       Max CFL number:  0.85E+00 at (  18,  11,  10)
       Max divergence:  0.24E+02 at (  12,  10,  12)
       Min divergence: -0.83E+01 at (  19,  13,   4)
       Max VN number:   0.30E+00 at (  17,   9,  13)
       Total Heat Release Rate:            264.852 kW
       Radiation Loss to Boundaries:       -80.592 kW
       Mesh    6
       Max CFL number:  0.67E+00 at (   1,   3,  17)
       Max divergence:  0.20E+02 at (   5,   5,   1)
       Min divergence: -0.35E+01 at (   1,  11,  13)
       Max VN number:   0.29E+00 at (   5,  10,  20)
       Total Heat Release Rate:             50.121 kW
       Radiation Loss to Boundaries:        -5.814 kW
       Mesh    7
       Max CFL number:  0.28E-01 at (   1,  18,   1)
       Max divergence:  0.20E-02 at (   1,  11,   4)
       Min divergence:  0.23E-03 at (  20,   7,   5)
       Max VN number:   0.36E-02 at (   1,  20,   1)
       Radiation Loss to Boundaries:         0.281 kW
       Mesh    8
       Max CFL number:  0.11E-01 at (  17,  16,   8)
       Max divergence:  0.48E-03 at (   1,  17,  14)
       Min divergence:  0.18E-04 at (  20,  10,   4)
       Max VN number:   0.22E-02 at (   6,  12,  19)
       Radiation Loss to Boundaries:         0.073 kW
       Mesh    9
       Max CFL number:  0.13E-01 at (   6,   8,   6)
       Max divergence:  0.35E-03 at (   1,   1,  16)
       Min divergence:  0.38E-05 at (  20,  13,   5)
       Max VN number:   0.24E-02 at (  14,  12,   4)
       Radiation Loss to Boundaries:         0.024 kW
       Mesh   10
       Max CFL number:  0.14E-01 at (  20,   4,   5)
       Max divergence:  0.20E-03 at (   1,   1,  19)
       Min divergence: -0.17E-05 at (  20,   9,   7)
       Max VN number:   0.43E-02 at (  20,  12,   5)
       Radiation Loss to Boundaries:         0.007 kW
 
       Time Step     200   June 26, 2020  16:17:59
       Step Size:    0.626E-02 s, Total Time:       2.21 s
       Pressure Iterations:     10
       Maximum Velocity Error:  0.38E-01 on Mesh   4 at (  21   1  20)
       Maximum Pressure Error:  0.69E+04 on Mesh   5 at (  10  13  10)
       ---------------------------------------------------------------
       Mesh    1
       Max CFL number:  0.11E+00 at (  20,   6,  14)
       Max divergence:  0.38E-03 at (  20,  19,   2)
       Min divergence:  0.74E-05 at (   1,  11,  12)
       Max VN number:   0.38E-01 at (  10,   1,  20)
       Radiation Loss to Boundaries:         0.029 kW
       Mesh    2
       Max CFL number:  0.12E+00 at (  20,   6,  18)
       Max divergence:  0.39E-03 at (  20,  11,   9)
       Min divergence:  0.47E-04 at (   1,  11,  15)
       Max VN number:   0.39E-01 at (  20,   1,  20)
       Radiation Loss to Boundaries:         0.078 kW
       Mesh    3
       Max CFL number:  0.41E+00 at (  20,  12,  20)
       Max divergence:  0.76E+00 at (  20,  14,  20)
       Min divergence: -0.73E+00 at (  19,  12,  20)
       Max VN number:   0.11E+00 at (  20,   1,  20)
       Radiation Loss to Boundaries:         0.128 kW
       Mesh    4
       Max CFL number:  0.75E+00 at (  16,   8,  19)
       Max divergence:  0.16E+01 at (  14,  13,  20)
       Min divergence: -0.23E+01 at (  19,   2,  12)
       Max VN number:   0.27E+00 at (  16,   1,  20)
       Total Heat Release Rate:              0.229 kW
       Radiation Loss to Boundaries:        -2.139 kW
       Mesh    5
       Max CFL number:  0.78E+00 at (   3,   3,  20)
       Max divergence:  0.34E+02 at (  14,  14,  13)
       Min divergence: -0.60E+01 at (  17,   8,   5)
       Max VN number:   0.26E+00 at (   4,   1,  20)
       Total Heat Release Rate:            360.440 kW
       Radiation Loss to Boundaries:      -117.737 kW
       Mesh    6
       Max CFL number:  0.64E+00 at (   4,   7,  20)
       Max divergence:  0.19E+02 at (   5,   6,   1)
       Min divergence: -0.30E+01 at (   1,  15,   1)
       Max VN number:   0.20E+00 at (   4,  13,  20)
       Total Heat Release Rate:             48.002 kW
       Radiation Loss to Boundaries:        -6.559 kW
       Mesh    7
       Max CFL number:  0.32E+00 at (   2,  15,  20)
       Max divergence:  0.71E+00 at (   3,   1,  20)
       Min divergence: -0.81E+00 at (   4,  15,  20)
       Max VN number:   0.79E-01 at (   2,  16,  20)
       Radiation Loss to Boundaries:         0.207 kW
       Mesh    8
       Max CFL number:  0.13E-01 at (   1,   3,   4)
       Max divergence:  0.66E-03 at (   1,  11,  10)
       Min divergence:  0.10E-03 at (  20,  11,  16)
       Max VN number:   0.18E-02 at (   7,   6,   9)
       Radiation Loss to Boundaries:         0.111 kW
       Mesh    9
       Max CFL number:  0.89E-02 at (   6,   8,   6)
       Max divergence:  0.48E-03 at (   1,  20,   1)
       Min divergence:  0.18E-04 at (  20,  11,  11)
       Max VN number:   0.19E-02 at (  14,  12,   4)
       Radiation Loss to Boundaries:         0.047 kW
       Mesh   10
       Max CFL number:  0.79E-02 at (  20,   4,   5)
       Max divergence:  0.26E-03 at (   1,  20,   1)
       Min divergence:  0.64E-06 at (  20,   9,   7)
       Max VN number:   0.36E-02 at (  20,  12,   5)
       Radiation Loss to Boundaries:         0.012 kW
 
       Time Step     300   June 26, 2020  16:18:05
       Step Size:    0.581E-02 s, Total Time:       2.80 s
       Pressure Iterations:     10
       Maximum Velocity Error:  0.25E-01 on Mesh   5 at (  21  20   1)
       Maximum Pressure Error:  0.65E+04 on Mesh   5 at (  14  16   1)
       ---------------------------------------------------------------
       Mesh    1
       Max CFL number:  0.11E+00 at (  20,   4,  17)
       Max divergence:  0.26E-03 at (  20,   3,   2)
       Min divergence:  0.10E-04 at (   1,  11,  16)
       Max VN number:   0.37E-01 at (  20,   1,  20)
       Radiation Loss to Boundaries:         0.028 kW
       Mesh    2
       Max CFL number:  0.40E+00 at (  19,   8,  19)
       Max divergence:  0.71E+00 at (  16,   9,  20)
       Min divergence: -0.90E+00 at (  17,   2,  19)
       Max VN number:   0.13E+00 at (  20,   1,  20)
       Radiation Loss to Boundaries:        -0.199 kW
       Mesh    3
       Max CFL number:  0.60E+00 at (  14,  20,  16)
       Max divergence:  0.12E+01 at (  14,  20,  14)
       Min divergence: -0.11E+01 at (  15,  18,  20)
       Max VN number:   0.18E+00 at (  14,  20,  20)
       Total Heat Release Rate:              0.007 kW
       Radiation Loss to Boundaries:        -3.468 kW
       Mesh    4
       Max CFL number:  0.80E+00 at (   7,  13,  20)
       Max divergence:  0.30E+01 at (  19,   1,  20)
       Min divergence: -0.29E+01 at (   4,  14,  20)
       Max VN number:   0.30E+00 at (  19,   1,  20)
       Total Heat Release Rate:              1.662 kW
       Radiation Loss to Boundaries:        -2.443 kW
       Mesh    5
       Max CFL number:  0.84E+00 at (  10,   9,  10)
       Max divergence:  0.28E+02 at (   7,   9,   1)
       Min divergence: -0.46E+01 at (   9,  15,   8)
       Max VN number:   0.26E+00 at (   1,   1,  20)
       Total Heat Release Rate:            257.733 kW
       Radiation Loss to Boundaries:       -83.220 kW
       Mesh    6
       Max CFL number:  0.57E+00 at (  11,  12,  20)
       Max divergence:  0.20E+02 at (   5,  14,   1)
       Min divergence: -0.29E+01 at (   2,  12,   1)
       Max VN number:   0.22E+00 at (   2,   1,  20)
       Total Heat Release Rate:             48.629 kW
       Radiation Loss to Boundaries:        -6.868 kW
       Mesh    7
       Max CFL number:  0.32E+00 at (   1,  18,  19)
       Max divergence:  0.70E+00 at (  16,  14,  20)
       Min divergence: -0.13E+01 at (   1,  18,  19)
       Max VN number:   0.11E+00 at (   5,  10,  15)
       Total Heat Release Rate:              0.004 kW
       Radiation Loss to Boundaries:        -1.422 kW
       Mesh    8
       Max CFL number:  0.51E-01 at (   1,   7,   2)
       Max divergence:  0.65E-03 at (   1,   3,   9)
       Min divergence:  0.66E-04 at (  20,  11,   1)
       Max VN number:   0.14E-01 at (   1,   1,   1)
       Radiation Loss to Boundaries:         0.101 kW
       Mesh    9
       Max CFL number:  0.35E-01 at (  13,   8,   8)
       Max divergence:  0.28E-03 at (   1,   2,   2)
       Min divergence:  0.19E-04 at (  20,  11,  17)
       Max VN number:   0.71E-02 at (   1,   1,   1)
       Radiation Loss to Boundaries:         0.038 kW
       Mesh   10
       Max CFL number:  0.35E-01 at (   5,   3,  17)
       Max divergence:  0.23E-03 at (   1,   1,   1)
       Min divergence:  0.10E-05 at (  20,  11,  15)
       Max VN number:   0.70E-02 at (  20,  20,   1)
       Radiation Loss to Boundaries:         0.012 kW
 
       Time Step     400   June 26, 2020  16:18:11
       Step Size:    0.703E-02 s, Total Time:       3.43 s
       Pressure Iterations:      9
       Maximum Velocity Error:  0.42E-01 on Mesh   4 at (  21   1  19)
       Maximum Pressure Error:  0.75E+04 on Mesh   5 at (   5   8  13)
       ---------------------------------------------------------------
       Mesh    1
       Max CFL number:  0.43E+00 at (  15,   2,  18)
       Max divergence:  0.10E+01 at (  13,   8,  20)
       Min divergence: -0.81E+00 at (  10,  12,  19)
       Max VN number:   0.14E+00 at (  18,   1,  20)
       Radiation Loss to Boundaries:        -0.955 kW
       Mesh    2
       Max CFL number:  0.56E+00 at (  10,  18,  19)
       Max divergence:  0.48E+00 at (   1,  20,  11)
       Min divergence: -0.84E+00 at (   4,   1,  18)
       Max VN number:   0.19E+00 at (  15,   1,  20)
       Radiation Loss to Boundaries:        -2.784 kW
       Mesh    3
       Max CFL number:  0.71E+00 at (  18,  17,  19)
       Max divergence:  0.12E+01 at (  19,  18,  20)
       Min divergence: -0.14E+01 at (  20,  18,  19)
       Max VN number:   0.20E+00 at (  20,  18,  20)
       Total Heat Release Rate:              0.037 kW
       Radiation Loss to Boundaries:        -1.442 kW
       Mesh    4
       Max CFL number:  0.76E+00 at (  17,  19,  18)
       Max divergence:  0.30E+01 at (   6,  14,  20)
       Min divergence: -0.25E+01 at (  16,  19,  18)
       Max VN number:   0.32E+00 at (  19,   5,  20)
       Total Heat Release Rate:              4.915 kW
       Radiation Loss to Boundaries:        -8.120 kW
       Mesh    5
       Max CFL number:  0.87E+00 at (   6,  11,  10)
       Max divergence:  0.23E+02 at (   6,  11,   1)
       Min divergence: -0.60E+01 at (   5,   3,   9)
       Max VN number:   0.34E+00 at (   3,  12,  20)
       Total Heat Release Rate:            312.340 kW
       Radiation Loss to Boundaries:       -97.747 kW
       Mesh    6
       Max CFL number:  0.49E+00 at (   2,  20,  14)
       Max divergence:  0.19E+02 at (   5,   9,   1)
[...]
       Max CFL number:  0.38E+00 at (   7,  14,   3)
       Max divergence:  0.29E+00 at (  15,  10,  20)
       Min divergence: -0.30E+00 at (   3,  18,   6)
       Max VN number:   0.13E+00 at (   4,  20,   1)
       Radiation Loss to Boundaries:        -1.232 kW
       Mesh    4
       Max CFL number:  0.36E+00 at (  11,   5,  19)
       Max divergence:  0.34E+00 at (   8,   1,  20)
       Min divergence: -0.43E+00 at (  19,   8,  20)
       Max VN number:   0.12E+00 at (  16,   1,  20)
       Radiation Loss to Boundaries:        -1.441 kW
       Mesh    5
       Max CFL number:  0.51E+00 at (  17,  13,   1)
       Max divergence:  0.20E+02 at (  16,   8,   1)
       Min divergence: -0.25E+01 at (  20,  12,   1)
       Max VN number:   0.12E+00 at (  20,   1,  20)
       Total Heat Release Rate:             50.196 kW
       Radiation Loss to Boundaries:        -5.438 kW
       Mesh    6
       Max CFL number:  0.70E+00 at (  18,  13,   4)
       Max divergence:  0.51E+02 at (  19,   9,   1)
       Min divergence: -0.68E+01 at (  19,  13,   4)
       Max VN number:   0.20E+00 at (  18,  13,   1)
       Total Heat Release Rate:            143.351 kW
       Radiation Loss to Boundaries:       -36.352 kW
       Mesh    7
       Max CFL number:  0.88E+00 at (   9,   7,  10)
       Max divergence:  0.48E+02 at (   2,  10,   1)
       Min divergence: -0.46E+01 at (   7,  10,   9)
       Max VN number:   0.30E+00 at (   9,   8,  12)
       Total Heat Release Rate:            179.419 kW
       Radiation Loss to Boundaries:       -70.002 kW
       Mesh    8
       Max CFL number:  0.83E+00 at (   4,  13,  20)
       Max divergence:  0.21E+01 at (   6,  20,  20)
       Min divergence: -0.23E+01 at (   2,  20,  19)
       Max VN number:   0.28E+00 at (   4,  20,  20)
       Total Heat Release Rate:              0.397 kW
       Radiation Loss to Boundaries:        -3.181 kW
       Mesh    9
       Max CFL number:  0.70E+00 at (   6,  16,  19)
       Max divergence:  0.12E+01 at (  13,  20,  14)
       Min divergence: -0.14E+01 at (   2,  18,  20)
       Max VN number:   0.24E+00 at (  19,  20,  20)
       Total Heat Release Rate:              0.006 kW
       Radiation Loss to Boundaries:        -3.976 kW
       Mesh   10
       Max CFL number:  0.77E+00 at (  20,  19,  20)
       Max divergence:  0.18E+01 at (  20,  20,  18)
       Min divergence: -0.81E+00 at (  19,  19,  18)
       Max VN number:   0.29E+00 at (  20,  20,  20)
       Radiation Loss to Boundaries:        -2.304 kW
 
       Time Step    3800   June 26, 2020  16:21:52
       Step Size:    0.697E-02 s, Total Time:      27.33 s
       Pressure Iterations:      9
       Maximum Velocity Error:  0.23E-01 on Mesh   6 at (  21  16   4)
       Maximum Pressure Error:  0.77E+04 on Mesh   6 at (   6  16   1)
       ---------------------------------------------------------------
       Mesh    1
       Max CFL number:  0.32E+00 at (  19,   4,   4)
       Max divergence:  0.77E+00 at (   4,   3,  13)
       Min divergence: -0.64E+00 at (   1,   8,  19)
       Max VN number:   0.12E+00 at (   2,   1,   6)
       Radiation Loss to Boundaries:        -1.378 kW
       Mesh    2
       Max CFL number:  0.35E+00 at (   4,  17,   3)
       Max divergence:  0.40E+00 at (   9,   1,  10)
       Min divergence: -0.35E+00 at (  16,   1,   7)
       Max VN number:   0.12E+00 at (   5,  20,   1)
       Radiation Loss to Boundaries:        -1.395 kW
       Mesh    3
       Max CFL number:  0.33E+00 at (  17,  17,   3)
       Max divergence:  0.37E+00 at (   7,  12,  20)
       Min divergence: -0.46E+00 at (   6,   8,  20)
       Max VN number:   0.10E+00 at (  15,   1,   1)
       Radiation Loss to Boundaries:        -1.629 kW
       Mesh    4
       Max CFL number:  0.34E+00 at (   4,  18,   4)
       Max divergence:  0.25E+00 at (  18,   1,  15)
       Min divergence: -0.38E+00 at (  18,   1,  16)
       Max VN number:   0.10E+00 at (   5,  20,   1)
       Radiation Loss to Boundaries:        -1.619 kW
       Mesh    5
       Max CFL number:  0.45E+00 at (  17,   9,   1)
       Max divergence:  0.20E+02 at (  16,  11,   1)
       Min divergence: -0.25E+01 at (  19,   7,   1)
       Max VN number:   0.10E+00 at (  17,   1,  20)
       Total Heat Release Rate:             49.996 kW
       Radiation Loss to Boundaries:        -5.030 kW
       Mesh    6
       Max CFL number:  0.57E+00 at (  20,  13,   5)
       Max divergence:  0.25E+02 at (  12,  14,   1)
       Min divergence: -0.54E+01 at (  18,   7,   4)
       Max VN number:   0.17E+00 at (  16,  10,   3)
       Total Heat Release Rate:            136.081 kW
       Radiation Loss to Boundaries:       -33.644 kW
       Mesh    7
       Max CFL number:  0.82E+00 at (  11,  15,  10)
       Max divergence:  0.78E+02 at (   3,  10,   1)
       Min divergence: -0.48E+01 at (  12,  16,  11)
       Max VN number:   0.21E+00 at (   4,  10,   1)
       Total Heat Release Rate:            195.544 kW
       Radiation Loss to Boundaries:       -76.385 kW
       Mesh    8
       Max CFL number:  0.68E+00 at (  14,   2,  20)
       Max divergence:  0.13E+01 at (   2,  18,  13)
       Min divergence: -0.19E+01 at (   3,  18,  15)
       Max VN number:   0.25E+00 at (  13,   1,  20)
       Total Heat Release Rate:              0.682 kW
       Radiation Loss to Boundaries:        -3.778 kW
       Mesh    9
       Max CFL number:  0.56E+00 at (  19,  19,  18)
       Max divergence:  0.19E+01 at (   5,  20,  11)
       Min divergence: -0.14E+01 at (   2,   1,  13)
       Max VN number:   0.19E+00 at (   9,  20,  20)
       Total Heat Release Rate:              0.005 kW
       Radiation Loss to Boundaries:        -3.767 kW
       Mesh   10
       Max CFL number:  0.58E+00 at (  20,  18,  20)
       Max divergence:  0.45E+00 at (  10,  17,  16)
       Min divergence: -0.73E+00 at (  20,   1,  16)
       Max VN number:   0.21E+00 at (  20,   1,  20)
       Radiation Loss to Boundaries:        -2.177 kW
 
       Time Step    3900   June 26, 2020  16:21:58
       Step Size:    0.708E-02 s, Total Time:      28.05 s
       Pressure Iterations:      8
       Maximum Velocity Error:  0.19E-01 on Mesh   6 at (  21  14   2)
       Maximum Pressure Error:  0.62E+04 on Mesh   6 at (  14  10   1)
       ---------------------------------------------------------------
       Mesh    1
       Max CFL number:  0.33E+00 at (  19,   5,   2)
       Max divergence:  0.67E+00 at (   1,  16,  19)
       Min divergence: -0.51E+00 at (   3,   1,  11)
       Max VN number:   0.12E+00 at (   9,  20,   1)
       Radiation Loss to Boundaries:        -1.244 kW
       Mesh    2
       Max CFL number:  0.37E+00 at (   2,  13,   3)
       Max divergence:  0.45E+00 at (   2,   3,  11)
       Min divergence: -0.43E+00 at (   6,  18,   6)
       Max VN number:   0.11E+00 at (  20,   1,   1)
       Radiation Loss to Boundaries:        -1.509 kW
       Mesh    3
       Max CFL number:  0.34E+00 at (   4,   4,   3)
       Max divergence:  0.24E+00 at (  18,  20,  14)
       Min divergence: -0.22E+00 at (  15,  14,  20)
       Max VN number:   0.11E+00 at (   1,   1,   1)
       Radiation Loss to Boundaries:        -1.632 kW
       Mesh    4
       Max CFL number:  0.34E+00 at (   8,  13,   5)
       Max divergence:  0.26E+00 at (  20,  15,  20)
       Min divergence: -0.33E+00 at (   6,  19,  20)
       Max VN number:   0.10E+00 at (   1,   1,   1)
       Radiation Loss to Boundaries:        -1.808 kW
       Mesh    5
       Max CFL number:  0.43E+00 at (  17,   9,   1)
       Max divergence:  0.19E+02 at (  16,  14,   1)
       Min divergence: -0.30E+01 at (  19,   6,   1)
       Max VN number:   0.92E-01 at (   6,   1,  20)
       Total Heat Release Rate:             48.271 kW
       Radiation Loss to Boundaries:        -4.796 kW
       Mesh    6
       Max CFL number:  0.65E+00 at (  17,  12,   5)
       Max divergence:  0.56E+02 at (  19,   9,   1)
       Min divergence: -0.48E+01 at (  15,  12,   2)
       Max VN number:   0.23E+00 at (  19,  13,   3)
       Total Heat Release Rate:            156.502 kW
       Radiation Loss to Boundaries:       -35.477 kW
       Mesh    7
       Max CFL number:  0.95E+00 at (  11,  17,  11)
       Max divergence:  0.31E+02 at (   2,   9,   1)
       Min divergence: -0.68E+01 at (   3,  16,  10)
       Max VN number:   0.25E+00 at (  20,  17,  20)
       Total Heat Release Rate:            132.968 kW
       Radiation Loss to Boundaries:       -59.146 kW
       Mesh    8
       Max CFL number:  0.65E+00 at (   5,  16,  20)
       Max divergence:  0.30E+01 at (   7,  16,  20)
       Min divergence: -0.20E+01 at (   3,  17,  20)
       Max VN number:   0.29E+00 at (   1,  17,  20)
       Total Heat Release Rate:              0.686 kW
       Radiation Loss to Boundaries:        -4.725 kW
       Mesh    9
       Max CFL number:  0.61E+00 at (   4,  16,  20)
       Max divergence:  0.12E+01 at (   6,   2,  20)
       Min divergence: -0.71E+00 at (  12,  12,  20)
       Max VN number:   0.20E+00 at (   2,  20,  20)
       Total Heat Release Rate:              0.010 kW
       Radiation Loss to Boundaries:        -4.172 kW
       Mesh   10
       Max CFL number:  0.61E+00 at (  20,   2,  20)
       Max divergence:  0.58E+00 at (  11,  14,  12)
       Min divergence: -0.64E+00 at (   6,  19,  19)
       Max VN number:   0.22E+00 at (  20,   1,  20)
       Radiation Loss to Boundaries:        -2.009 kW
 
       Time Step    4000   June 26, 2020  16:22:05
       Step Size:    0.723E-02 s, Total Time:      28.79 s
       Pressure Iterations:      8
       Maximum Velocity Error:  0.24E-01 on Mesh   6 at (  21  10   2)
       Maximum Pressure Error:  0.62E+04 on Mesh   6 at (   5  16   1)
       ---------------------------------------------------------------
       Mesh    1
       Max CFL number:  0.34E+00 at (  15,  16,   3)
       Max divergence:  0.57E+00 at (   8,  18,  11)
       Min divergence: -0.75E+00 at (   2,   1,  12)
       Max VN number:   0.15E+00 at (   1,   1,  12)
       Radiation Loss to Boundaries:        -1.196 kW
       Mesh    2
       Max CFL number:  0.34E+00 at (  17,   7,   3)
       Max divergence:  0.46E+00 at (  12,  18,   9)
       Min divergence: -0.28E+00 at (  17,  20,   6)
       Max VN number:   0.11E+00 at (   1,   1,   1)
       Radiation Loss to Boundaries:        -1.531 kW
       Mesh    3
       Max CFL number:  0.35E+00 at (  11,   9,   6)
       Max divergence:  0.38E+00 at (  10,  18,  20)
       Min divergence: -0.38E+00 at (   7,  19,  10)
       Max VN number:   0.11E+00 at (  16,   1,   9)
       Radiation Loss to Boundaries:        -1.696 kW
       Mesh    4
       Max CFL number:  0.33E+00 at (   2,   3,   4)
       Max divergence:  0.31E+00 at (   9,  20,  13)
       Min divergence: -0.30E+00 at (  13,   1,  12)
       Max VN number:   0.11E+00 at (   1,   1,   1)
       Radiation Loss to Boundaries:        -1.671 kW
       Mesh    5
       Max CFL number:  0.53E+00 at (  17,  13,   1)
       Max divergence:  0.21E+02 at (  16,  13,   1)
       Min divergence: -0.23E+01 at (  20,  12,   1)
       Max VN number:   0.10E+00 at (   3,   1,   1)
       Total Heat Release Rate:             54.011 kW
       Radiation Loss to Boundaries:        -4.756 kW
       Mesh    6
       Max CFL number:  0.67E+00 at (  20,  16,   6)
       Max divergence:  0.42E+02 at (  14,  13,   1)
       Min divergence: -0.40E+01 at (  11,  14,   1)
       Max VN number:   0.16E+00 at (  20,  16,   6)
       Total Heat Release Rate:            144.712 kW
       Radiation Loss to Boundaries:       -38.229 kW
       Mesh    7
       Max CFL number:  0.79E+00 at (  12,   6,   9)
       Max divergence:  0.29E+02 at (   1,  12,   1)
       Min divergence: -0.49E+01 at (   2,  11,  10)
       Max VN number:   0.32E+00 at (  12,   6,   9)
       Total Heat Release Rate:            153.371 kW
       Radiation Loss to Boundaries:       -64.077 kW
       Mesh    8
       Max CFL number:  0.73E+00 at (  15,  19,  19)
       Max divergence:  0.17E+01 at (   1,   5,   9)
       Min divergence: -0.14E+01 at (  18,  20,  13)
       Max VN number:   0.28E+00 at (  11,  20,  20)
       Total Heat Release Rate:              0.255 kW
       Radiation Loss to Boundaries:        -2.705 kW
       Mesh    9
       Max CFL number:  0.73E+00 at (   1,  20,  20)
       Max divergence:  0.27E+01 at (   3,  10,  20)
       Min divergence: -0.17E+01 at (   3,   9,  20)
       Max VN number:   0.26E+00 at (   1,  20,  20)
       Total Heat Release Rate:              0.005 kW
       Radiation Loss to Boundaries:        -3.024 kW
       Mesh   10
       Max CFL number:  0.63E+00 at (  20,   6,  20)
       Max divergence:  0.55E+00 at (  16,  20,  14)
       Min divergence: -0.80E+00 at (  19,  20,  17)
       Max VN number:   0.22E+00 at (  20,  20,  20)
       Radiation Loss to Boundaries:        -3.144 kW
 
       Time Step    4100   June 26, 2020  16:22:11
       Step Size:    0.817E-02 s, Total Time:      29.54 s
       Pressure Iterations:     10
       Maximum Velocity Error:  0.40E-01 on Mesh   6 at (  21   8   2)
       Maximum Pressure Error:  0.48E+04 on Mesh   5 at (  20  16   1)
       ---------------------------------------------------------------
       Mesh    1
       Max CFL number:  0.35E+00 at (  20,   4,   3)
       Max divergence:  0.53E+00 at (   1,  14,  19)
       Min divergence: -0.40E+00 at (   2,   9,  18)
       Max VN number:   0.14E+00 at (  12,   1,   1)
       Radiation Loss to Boundaries:        -1.289 kW
       Mesh    2
       Max CFL number:  0.38E+00 at (   9,   3,   4)
       Max divergence:  0.29E+00 at (  20,  20,  11)
       Min divergence: -0.24E+00 at (   8,  19,   9)
       Max VN number:   0.14E+00 at (   3,  20,   1)
       Radiation Loss to Boundaries:        -1.544 kW
       Mesh    3
       Max CFL number:  0.36E+00 at (  20,   7,   3)
       Max divergence:  0.44E+00 at (   1,  20,  10)
       Min divergence: -0.38E+00 at (   3,   2,  12)
       Max VN number:   0.12E+00 at (   6,   1,   7)
       Radiation Loss to Boundaries:        -1.600 kW
       Mesh    4
       Max CFL number:  0.37E+00 at (  20,   7,   3)
       Max divergence:  0.28E+00 at (  10,   2,  20)
       Min divergence: -0.26E+00 at (  14,   1,  19)
       Max VN number:   0.12E+00 at (   1,  20,   1)
       Radiation Loss to Boundaries:        -1.649 kW
       Mesh    5
       Max CFL number:  0.51E+00 at (  17,  15,   1)
       Max divergence:  0.20E+02 at (  16,   7,   1)
       Min divergence: -0.25E+01 at (  20,  12,   1)
       Max VN number:   0.11E+00 at (   4,   1,   1)
       Total Heat Release Rate:             50.847 kW
       Radiation Loss to Boundaries:        -4.769 kW
       Mesh    6
       Max CFL number:  0.72E+00 at (  20,   5,   5)
       Max divergence:  0.23E+02 at (  19,   8,   4)
       Min divergence: -0.38E+01 at (  16,   8,   6)
       Max VN number:   0.21E+00 at (  20,   1,  20)
       Total Heat Release Rate:            125.040 kW
       Radiation Loss to Boundaries:       -32.884 kW
       Mesh    7
       Max CFL number:  0.97E+00 at (   7,  11,   5)
       Max divergence:  0.50E+02 at (   1,  12,   1)
       Min divergence: -0.82E+01 at (   9,   6,  11)
       Max VN number:   0.26E+00 at (   7,  11,   5)
       Total Heat Release Rate:            159.703 kW
       Radiation Loss to Boundaries:       -64.262 kW
       Mesh    8
       Max CFL number:  0.71E+00 at (  12,   2,  20)
       Max divergence:  0.20E+01 at (   3,  15,  11)
       Min divergence: -0.16E+01 at (   3,  14,  11)
       Max VN number:   0.25E+00 at (  11,  20,  20)
       Total Heat Release Rate:              0.416 kW
       Radiation Loss to Boundaries:        -4.741 kW
       Mesh    9
       Max CFL number:  0.76E+00 at (   4,   2,  20)
       Max divergence:  0.93E+00 at (   6,   1,  16)
       Min divergence: -0.96E+00 at (   1,   1,  15)
       Max VN number:   0.29E+00 at (   3,   1,  20)
       Total Heat Release Rate:              0.008 kW
       Radiation Loss to Boundaries:        -2.736 kW
       Mesh   10
       Max CFL number:  0.69E+00 at (  20,  19,  20)
       Max divergence:  0.54E+00 at (   1,   1,  17)
       Min divergence: -0.59E+00 at (  19,   4,  20)
       Max VN number:   0.25E+00 at (  20,   1,  20)
       Radiation Loss to Boundaries:        -1.945 kW
 
       Time Step    4157   June 26, 2020  16:22:15
       Step Size:    0.122E-02 s, Total Time:      30.00 s
       Pressure Iterations:     10
       Maximum Velocity Error:  0.34E-01 on Mesh   6 at (  21   9   1)
       Maximum Pressure Error:  0.75E+04 on Mesh   7 at (   5  10   1)
       ---------------------------------------------------------------
       Mesh    1
       Max CFL number:  0.55E-01 at (  20,   8,   3)
       Max divergence:  0.67E+00 at (   1,  18,  18)
       Min divergence: -0.47E+00 at (   3,  15,  12)
       Max VN number:   0.21E-01 at (  20,   1,   1)
       Radiation Loss to Boundaries:        -1.294 kW
       Mesh    2
       Max CFL number:  0.56E-01 at (  20,  12,   3)
       Max divergence:  0.45E+00 at (  20,  20,  12)
       Min divergence: -0.33E+00 at (   8,  20,   5)
       Max VN number:   0.21E-01 at (   1,   1,   1)
       Radiation Loss to Boundaries:        -1.614 kW
       Mesh    3
       Max CFL number:  0.57E-01 at (   3,   2,   3)
       Max divergence:  0.23E+00 at (  15,   2,   8)
       Min divergence: -0.33E+00 at (  15,   1,   8)
       Max VN number:   0.18E-01 at (   4,   1,   1)
       Radiation Loss to Boundaries:        -1.435 kW
       Mesh    4
       Max CFL number:  0.57E-01 at (  20,   3,  16)
       Max divergence:  0.33E+00 at (   1,   4,  20)
       Min divergence: -0.39E+00 at (  10,   2,  10)
       Max VN number:   0.17E-01 at (  10,   1,   1)
       Radiation Loss to Boundaries:        -1.692 kW
       Mesh    5
       Max CFL number:  0.86E-01 at (  17,   7,   1)
       Max divergence:  0.23E+02 at (  16,  10,   1)
       Min divergence: -0.36E+01 at (  19,   8,   1)
       Max VN number:   0.20E-01 at (  20,   1,  20)
       Total Heat Release Rate:             55.120 kW
       Radiation Loss to Boundaries:        -4.820 kW
       Mesh    6
       Max CFL number:  0.11E+00 at (  20,  12,   4)
       Max divergence:  0.25E+02 at (  15,   7,   1)
       Min divergence: -0.40E+01 at (  14,   9,   4)
       Max VN number:   0.31E-01 at (  13,   1,  20)
       Total Heat Release Rate:            125.745 kW
       Radiation Loss to Boundaries:       -28.751 kW
       Mesh    7
       Max CFL number:  0.13E+00 at (   5,   9,   1)
       Max divergence:  0.54E+02 at (   5,   9,   1)
       Min divergence: -0.65E+01 at (   8,   4,  10)
       Max VN number:   0.42E-01 at (   7,   9,   7)
       Total Heat Release Rate:            244.371 kW
       Radiation Loss to Boundaries:       -89.355 kW
       Mesh    8
       Max CFL number:  0.11E+00 at (  12,   2,  19)
       Max divergence:  0.71E+01 at (   6,  15,  16)
       Min divergence: -0.65E+01 at (   5,  15,  16)
       Max VN number:   0.41E-01 at (   9,   4,  20)
       Total Heat Release Rate:              0.873 kW
       Radiation Loss to Boundaries:        -4.399 kW
       Mesh    9
       Max CFL number:  0.97E-01 at (  16,  12,  18)
       Max divergence:  0.90E+00 at (  16,   3,  16)
       Min divergence: -0.84E+00 at (  13,   1,  16)
       Max VN number:   0.33E-01 at (  11,   1,  20)
       Total Heat Release Rate:              0.006 kW
       Radiation Loss to Boundaries:        -3.266 kW
       Mesh   10
       Max CFL number:  0.10E+00 at (  20,   3,  20)
       Max divergence:  0.66E+00 at (   4,   1,  17)
       Min divergence: -0.70E+00 at (  16,  19,  19)
       Max VN number:   0.36E-01 at (  20,   1,  20)
       Radiation Loss to Boundaries:        -2.732 kW
 


 Time Stepping Wall Clock Time (s):      268.011
 Total Elapsed Wall Clock Time (s):      272.636

STOP: FDS completed successfully (CHID: pressure_boundary_scarc)
