
 Fire Dynamics Simulator

 Current Date     : June 26, 2020  16:17:44
 Revision         : -AMG
 Revision Date    : Fri Jun 26 15:19:14 2020 +0200
 Compiler         : Intel ifort 19.0.5.281
 Compilation Date : Jun 26, 2020 15:25:32

 MPI Enabled;    Number of MPI Processes:       8
 OpenMP Enabled; Number of OpenMP Threads:      2

 MPI version: 3.1
 MPI library version: Intel(R) MPI Library 2018 Update 1 for Linux* OS


 Job TITLE        : Pressure zones in multi-mesh simulation with unstructured ScaRC solver
 Job ID string    : zone_shape_2_uscarc


 Grid Dimensions, Mesh     1

   Cells in the X Direction            16
   Cells in the Y Direction            16
   Cells in the Z Direction            16
   Number of Grid Cells              4096


 Physical Dimensions, Mesh     1

   Length (m)                       3.200
   Width  (m)                       3.200
   Height (m)                       3.200
   Initial Time Step (s)            0.125

 Grid Dimensions, Mesh     2

   Cells in the X Direction            16
   Cells in the Y Direction            16
   Cells in the Z Direction            16
   Number of Grid Cells              4096


 Physical Dimensions, Mesh     2

   Length (m)                       3.200
   Width  (m)                       3.200
   Height (m)                       3.200
   Initial Time Step (s)            0.125

 Grid Dimensions, Mesh     3

   Cells in the X Direction            16
   Cells in the Y Direction            16
   Cells in the Z Direction            16
   Number of Grid Cells              4096


 Physical Dimensions, Mesh     3

   Length (m)                       3.200
   Width  (m)                       3.200
   Height (m)                       3.200
   Initial Time Step (s)            0.125

 Grid Dimensions, Mesh     4

   Cells in the X Direction            16
   Cells in the Y Direction            16
   Cells in the Z Direction            16
   Number of Grid Cells              4096


 Physical Dimensions, Mesh     4

   Length (m)                       3.200
   Width  (m)                       3.200
   Height (m)                       3.200
   Initial Time Step (s)            0.125

 Grid Dimensions, Mesh     5

   Cells in the X Direction            16
   Cells in the Y Direction            16
   Cells in the Z Direction            16
   Number of Grid Cells              4096


 Physical Dimensions, Mesh     5

   Length (m)                       3.200
   Width  (m)                       3.200
   Height (m)                       3.200
   Initial Time Step (s)            0.125

 Grid Dimensions, Mesh     6

   Cells in the X Direction            16
   Cells in the Y Direction            16
   Cells in the Z Direction            16
   Number of Grid Cells              4096


 Physical Dimensions, Mesh     6

   Length (m)                       3.200
   Width  (m)                       3.200
   Height (m)                       3.200
   Initial Time Step (s)            0.125

 Grid Dimensions, Mesh     7

   Cells in the X Direction            16
   Cells in the Y Direction            16
   Cells in the Z Direction            16
   Number of Grid Cells              4096


 Physical Dimensions, Mesh     7

   Length (m)                       3.200
   Width  (m)                       3.200
   Height (m)                       3.200
   Initial Time Step (s)            0.125

 Grid Dimensions, Mesh     8

   Cells in the X Direction            16
   Cells in the Y Direction            16
   Cells in the Z Direction            16
   Number of Grid Cells              4096


 Physical Dimensions, Mesh     8

   Length (m)                       3.200
   Width  (m)                       3.200
   Height (m)                       3.200
   Initial Time Step (s)            0.125

Total Number of Grid Cells         32768


 Miscellaneous Parameters

   Simulation Start Time (s)          0.0
   Simulation End Time (s)          300.0
   LES Calculation
   Eddy Viscosity:           Deardorff Model (C_DEARDORFF = 0.10)
   Near-wall Eddy Viscosity: Smagorinsky with Van Driest damping (C_SMAGORINSKY = 0.20)
   Turbulent Prandtl Number:         0.50
   Turbulent Schmidt Number:         0.50
   Ambient Temperature (C):         20.00


 Mass Fraction Transformation Matrix to Convert Species Mixtures (Columns) to Primitive Species (Rows)

                         AIR     
   NITROGEN              0.762470
   OXYGEN                0.230997
   CARBON DIOXIDE        0.000591
   WATER VAPOR           0.005941


 Primitive Species Information

   NITROGEN
   Gas Species
   Molecular Weight (g/mol)            28.01340
   Ambient Density (kg/m^3)            1.165
   Enthalpy of Formation (J/kg)        0.00E+00

   OXYGEN
   Gas Species
   Molecular Weight (g/mol)            31.99880
   Ambient Density (kg/m^3)            1.330
   Enthalpy of Formation (J/kg)        0.00E+00

   CARBON DIOXIDE
   Gas Species
   Molecular Weight (g/mol)            44.00950
   Ambient Density (kg/m^3)            1.830
   Enthalpy of Formation (J/kg)       -8.94E+06

   WATER VAPOR
   Gas Species
   Molecular Weight (g/mol)            18.01528
   Ambient Density (kg/m^3)            0.749
   Enthalpy of Formation (J/kg)       -1.34E+07


 Tracked (Lumped) Species Information

   AIR
   Molecular Weight (g/mol)            28.75199
   Ambient Density (kg/m^3)            1.195
   Initial Mass Fraction               1.000
   Enthalpy of Formation (J/kg)     -8.50E+04

   Sub Species                    Mass Fraction     Mole Fraction
   NITROGEN                       7.624701E-01      7.825730E-01
   OXYGEN                         2.309974E-01      2.075589E-01
   CARBON DIOXIDE                 5.914651E-04      3.864120E-04
   WATER VAPOR                    5.940984E-03      9.481679E-03
 
     Viscosity (kg/m/s) Ambient,  293 K:  1.80E-05
                                  500 K:  2.61E-05
                                 1000 K:  4.13E-05
                                 1500 K:  5.37E-05
   Therm. Cond. (W/m/K) Ambient,  293 K:  2.56E-02
                                  500 K:  3.81E-02
                                 1000 K:  6.69E-02
                                 1500 K:  9.25E-02
        Enthalpy (J/kg) Ambient,  293 K: -9.01E+04
                                  500 K:  1.22E+05
                                 1000 K:  6.72E+05
                                 1500 K:  1.27E+06
    Spec. Heat (J/kg/K) Ambient,  293 K:  1.02E+03
                                  500 K:  1.04E+03
                                 1000 K:  1.16E+03
                                 1500 K:  1.23E+03
   Diff. Coeff. (m^2/s) Ambient,  293 K:  1.99E-05
                                  500 K:  4.96E-05
                                 1000 K:  1.58E-04
                                 1500 K:  3.09E-04


 Material Information


 Surface Conditions

   0 INERT (DEFAULT)

   1 DUCT

   2 DUCT LEAK

   3 OPEN
     Passive Vent to Atmosphere

   4 MIRROR
     Symmetry Plane

   5 INTERPOLATED

   6 PERIODIC

   7 HVAC

   8 MASSLESS TRACER

   9 DROPLET

  10 EVACUATION_OUTFLOW
     Normal Velocity (m/s)         0.000

  11 MASSLESS TARGET

  12 PERIODIC WIND


 Device Coordinates

     1 Coords:      5.500000      5.500000      5.500000, Make: null, ID: p_1, Quantity: PRESSURE
     2 Coords:      1.500000      1.500000      4.500000, Make: null, ID: p_2, Quantity: PRESSURE
     3 Coords:      0.000000      0.000000      0.000000, Make: null, ID: Delta p, Quantity: CONTROL VALUE


 Slice File Information, Mesh     1

   Sampling Interval (s)             0.300

   1 Nodes:   0  16   9   9   0  16, Quantity: PRESSURE
   2 Nodes:   0  16   0  16   9   9, Quantity: PRESSURE
   3 Nodes:   0  16   9   9   0  16, Quantity: PRESSURE ZONE
   4 Nodes:   0  16   0  16   9   9, Quantity: PRESSURE ZONE


 Boundary File Information

   Sampling Interval (s)             0.600

   1 Quantity: VELOCITY ERROR


 USCARC Information

   Discretization             STRUCTURED
   Global solver                  KRYLOV
   Storage technique             COMPACT
   Preconditioner                PARDISO
   MKL precision                  DOUBLE
   Max iterations                   1000
   Stopping accuracy            0.10E-07
 
 

 Run Time Diagnostics

       Time Step       1   June 26, 2020  16:17:45
       Step Size:    0.125E+00 s, Total Time:       0.12 s
       Pressure Iterations:      1
       Maximum Velocity Error:  0.14E-16 on Mesh   3 at (   9   7  17)
       Maximum Pressure Error:  0.50E+03 on Mesh   1 at (   8   7   7)
       ScaRC: iterations    95, residual  0.76E-08, convergence rate   0.79E+00
       ---------------------------------------------------------------
       Mesh    1
       Max CFL number:  0.71E-01 at (  11,  10,  11)
       Max divergence:  0.18E-03 at (  16,   2,   9)
       Min divergence: -0.20E-02 at (  16,   8,  11)
       Max VN number:   0.94E-02 at (   4,   6,   5)
       Mesh    2
       Max CFL number:  0.93E-01 at (   6,  11,  11)
       Max divergence:  0.18E-03 at (   1,   1,  16)
       Min divergence: -0.20E-02 at (   1,   8,   7)
       Max VN number:   0.76E-02 at (  10,   3,   7)
       Mesh    3
       Max CFL number:  0.81E-01 at (  11,   9,  11)
       Max divergence:  0.18E-03 at (  16,   3,  14)
       Min divergence: -0.20E-02 at (   8,   6,  16)
       Max VN number:   0.87E-02 at (   4,   6,  11)
       Mesh    4
       Max CFL number:  0.88E-01 at (   6,   6,  10)
       Max divergence:  0.18E-03 at (   1,   3,  15)
       Min divergence: -0.20E-02 at (   9,   1,  11)
       Max VN number:   0.77E-02 at (   6,  15,   7)
       Mesh    5
       Max CFL number:  0.46E-01 at (  15,  10,   9)
       Max divergence:  0.18E-03 at (  16,   1,   1)
       Min divergence: -0.20E-02 at (  16,   7,  10)
       Max VN number:   0.82E-02 at (   4,  10,  10)
       Mesh    6
       Max CFL number:  0.66E-01 at (   6,  11,   9)
       Max divergence:  0.18E-03 at (   1,   1,  15)
       Min divergence: -0.20E-02 at (   6,  16,   8)
       Max VN number:   0.89E-02 at (   9,   5,  13)
       Mesh    7
       Max CFL number:  0.75E-01 at (  11,   6,   6)
       Max divergence:  0.18E-03 at (  16,  16,  12)
       Min divergence: -0.20E-02 at (   7,   8,   1)
       Max VN number:   0.85E-02 at (   8,   5,  14)
       Mesh    8
       Max CFL number:  0.72E-01 at (   6,   6,   6)
       Max divergence:  0.18E-03 at (   1,   2,   3)
       Min divergence: -0.20E-02 at (   9,   1,   8)
       Max VN number:   0.82E-02 at (   2,  15,   7)
 
       Time Step       2   June 26, 2020  16:17:45
       Step Size:    0.125E+00 s, Total Time:       0.25 s
       Pressure Iterations:      1
       Maximum Velocity Error:  0.14E-16 on Mesh   1 at (  17  11   7)
       Maximum Pressure Error:  0.13E+02 on Mesh   5 at (   8   7  10)
       ScaRC: iterations    86, residual  0.80E-08, convergence rate   0.79E+00
       ---------------------------------------------------------------
       Mesh    1
       Max CFL number:  0.71E-01 at (  10,  10,  11)
       Max divergence:  0.17E-03 at (   1,   1,   1)
       Min divergence: -0.19E-02 at (   9,   7,  11)
       Max VN number:   0.19E-01 at (   6,  12,   8)
       Mesh    2
       Max CFL number:  0.94E-01 at (   5,  11,  11)
       Max divergence:  0.17E-03 at (  16,   1,   1)
       Min divergence: -0.19E-02 at (   5,  11,  11)
       Max VN number:   0.44E-01 at (   6,  11,   7)
       Mesh    3
       Max CFL number:  0.81E-01 at (  12,   9,  11)
       Max divergence:  0.17E-03 at (   1,  16,   1)
       Min divergence: -0.19E-02 at (  12,   6,  11)
       Max VN number:   0.34E-01 at (  11,  10,  11)
       Mesh    4
       Max CFL number:  0.90E-01 at (   6,   5,  10)
       Max divergence:  0.17E-03 at (  16,  16,   1)
       Min divergence: -0.19E-02 at (   6,   5,  11)
       Max VN number:   0.37E-01 at (   6,   6,  11)
       Mesh    5
       Max CFL number:  0.48E-01 at (  14,  10,   9)
       Max divergence:  0.17E-03 at (   1,   1,  16)
       Min divergence: -0.19E-02 at (   8,   7,  10)
       Max VN number:   0.81E-02 at (   4,  10,  10)
       Mesh    6
       Max CFL number:  0.67E-01 at (   5,  11,   9)
       Max divergence:  0.17E-03 at (  16,   1,  16)
       Min divergence: -0.19E-02 at (   6,  12,   6)
       Max VN number:   0.25E-01 at (   6,  11,   6)
       Mesh    7
       Max CFL number:  0.78E-01 at (  11,   8,   5)
       Max divergence:  0.17E-03 at (   1,  16,  16)
       Min divergence: -0.19E-02 at (  11,   6,   5)
       Max VN number:   0.30E-01 at (  11,   6,   6)
       Mesh    8
       Max CFL number:  0.75E-01 at (   5,   6,   6)
       Max divergence:  0.17E-03 at (  16,  16,  16)
       Min divergence: -0.19E-02 at (   5,   6,   6)
       Max VN number:   0.30E-01 at (   6,   6,   6)
 
       Time Step       3   June 26, 2020  16:17:45
       Step Size:    0.125E+00 s, Total Time:       0.38 s
       Pressure Iterations:      1
       Maximum Velocity Error:  0.14E-16 on Mesh   1 at (  17  11   9)
       Maximum Pressure Error:  0.33E+02 on Mesh   5 at (   8  11  10)
       ScaRC: iterations    88, residual  0.68E-08, convergence rate   0.79E+00
       ---------------------------------------------------------------
       Mesh    1
       Max CFL number:  0.71E-01 at (  10,  10,  11)
       Max divergence:  0.13E-03 at (   1,   1,   1)
       Min divergence: -0.15E-02 at (   9,   7,  11)
       Max VN number:   0.19E-01 at (   6,  12,   8)
       Mesh    2
       Max CFL number:  0.96E-01 at (   5,  11,  11)
       Max divergence:  0.13E-03 at (  16,   1,   1)
       Min divergence: -0.15E-02 at (   5,  11,  11)
       Max VN number:   0.44E-01 at (   6,  11,   7)
       Mesh    3
       Max CFL number:  0.85E-01 at (  12,   9,  11)
       Max divergence:  0.13E-03 at (   1,  16,   1)
       Min divergence: -0.15E-02 at (  12,   6,  11)
       Max VN number:   0.35E-01 at (  11,  10,  11)
       Mesh    4
       Max CFL number:  0.93E-01 at (   6,   5,  10)
       Max divergence:  0.13E-03 at (  16,  16,   1)
       Min divergence: -0.15E-02 at (   6,   5,  11)
       Max VN number:   0.37E-01 at (   6,   6,  11)
       Mesh    5
       Max CFL number:  0.53E-01 at (  14,  10,   9)
       Max divergence:  0.13E-03 at (   1,   1,  16)
       Min divergence: -0.15E-02 at (   8,   7,  10)
       Max VN number:   0.81E-02 at (   4,  10,  10)
       Mesh    6
       Max CFL number:  0.73E-01 at (   6,  12,   6)
       Max divergence:  0.13E-03 at (  16,   1,  16)
       Min divergence: -0.15E-02 at (   6,  12,   6)
       Max VN number:   0.26E-01 at (   6,  11,   6)
       Mesh    7
       Max CFL number:  0.83E-01 at (  11,   8,   5)
       Max divergence:  0.13E-03 at (   1,  16,  16)
       Min divergence: -0.15E-02 at (  11,   6,   5)
       Max VN number:   0.30E-01 at (  11,   6,   6)
       Mesh    8
       Max CFL number:  0.82E-01 at (   5,   6,   6)
       Max divergence:  0.13E-03 at (  16,  16,  16)
       Min divergence: -0.15E-02 at (   5,   6,   6)
       Max VN number:   0.31E-01 at (   6,   6,   6)
 
       Time Step       4   June 26, 2020  16:17:46
       Step Size:    0.125E+00 s, Total Time:       0.50 s
       Pressure Iterations:      1
       Maximum Velocity Error:  0.14E-16 on Mesh   1 at (  17  10  11)
       Maximum Pressure Error:  0.42E+02 on Mesh   5 at (   8  11  10)
       ScaRC: iterations    88, residual  0.84E-08, convergence rate   0.79E+00
       ---------------------------------------------------------------
       Mesh    1
       Max CFL number:  0.71E-01 at (  10,  10,  11)
       Max divergence:  0.88E-04 at (   1,   1,   1)
       Min divergence: -0.98E-03 at (   9,   7,  11)
       Max VN number:   0.19E-01 at (   6,  12,   8)
       Mesh    2
       Max CFL number:  0.99E-01 at (   5,  11,  11)
       Max divergence:  0.88E-04 at (  16,   1,   1)
       Min divergence: -0.98E-03 at (   5,  11,  11)
       Max VN number:   0.44E-01 at (   6,  11,   7)
       Mesh    3
       Max CFL number:  0.91E-01 at (  12,   9,  11)
       Max divergence:  0.88E-04 at (   1,  16,   1)
       Min divergence: -0.98E-03 at (  12,   6,  11)
       Max VN number:   0.37E-01 at (  11,  10,  11)
       Mesh    4
       Max CFL number:  0.97E-01 at (   6,   5,   9)
       Max divergence:  0.88E-04 at (  16,  16,   1)
       Min divergence: -0.98E-03 at (   6,   5,  11)
       Max VN number:   0.39E-01 at (   6,   6,  11)
       Mesh    5
       Max CFL number:  0.59E-01 at (  14,  10,   9)
       Max divergence:  0.88E-04 at (   1,   1,  16)
       Min divergence: -0.98E-03 at (   8,   7,  10)
       Max VN number:   0.95E-02 at (  12,   7,  10)
       Mesh    6
       Max CFL number:  0.83E-01 at (   6,  12,   8)
       Max divergence:  0.88E-04 at (  16,   1,  16)
       Min divergence: -0.98E-03 at (   6,  12,   6)
       Max VN number:   0.30E-01 at (   6,  11,   6)
       Mesh    7
       Max CFL number:  0.90E-01 at (  11,   8,   5)
       Max divergence:  0.88E-04 at (   1,  16,  16)
       Min divergence: -0.98E-03 at (  11,   6,   5)
       Max VN number:   0.33E-01 at (  11,   6,   6)
       Mesh    8
       Max CFL number:  0.89E-01 at (   5,   6,   6)
       Max divergence:  0.88E-04 at (  16,  16,  16)
       Min divergence: -0.98E-03 at (   5,   6,   6)
       Max VN number:   0.34E-01 at (   6,   6,   6)
 
       Time Step       5   June 26, 2020  16:17:46
       Step Size:    0.125E+00 s, Total Time:       0.62 s
       Pressure Iterations:      1
       Maximum Velocity Error:  0.14E-16 on Mesh   1 at (  17  10   7)
       Maximum Pressure Error:  0.38E+02 on Mesh   5 at (   8  11  10)
       ScaRC: iterations    88, residual  0.79E-08, convergence rate   0.79E+00
       ---------------------------------------------------------------
       Mesh    1
       Max CFL number:  0.71E-01 at (  10,  10,  11)
       Max divergence:  0.48E-04 at (   1,   1,   1)
       Min divergence: -0.54E-03 at (   9,   7,  11)
       Max VN number:   0.19E-01 at (   6,  12,   8)
       Mesh    2
       Max CFL number:  0.10E+00 at (   5,  11,  11)
       Max divergence:  0.48E-04 at (  16,   1,   1)
       Min divergence: -0.54E-03 at (   5,  11,  11)
       Max VN number:   0.45E-01 at (   6,  11,   7)
       Mesh    3
       Max CFL number:  0.95E-01 at (  12,   9,  11)
       Max divergence:  0.48E-04 at (   1,  16,   1)
       Min divergence: -0.54E-03 at (  12,   6,  11)
       Max VN number:   0.40E-01 at (  11,  10,  11)
       Mesh    4
       Max CFL number:  0.10E+00 at (   6,   5,   9)
       Max divergence:  0.48E-04 at (  16,  16,   1)
       Min divergence: -0.54E-03 at (   6,   5,  11)
       Max VN number:   0.40E-01 at (   6,   6,  11)
       Mesh    5
       Max CFL number:  0.64E-01 at (  14,  10,   9)
       Max divergence:  0.48E-04 at (   1,   1,  16)
       Min divergence: -0.54E-03 at (   8,   7,  10)
       Max VN number:   0.12E-01 at (  13,   7,  10)
       Mesh    6
       Max CFL number:  0.91E-01 at (   6,  12,   8)
       Max divergence:  0.48E-04 at (  16,   1,  16)
       Min divergence: -0.54E-03 at (   6,  12,   6)
       Max VN number:   0.35E-01 at (   6,  11,   6)
       Mesh    7
       Max CFL number:  0.96E-01 at (  11,   8,   5)
       Max divergence:  0.48E-04 at (   1,  16,  16)
       Min divergence: -0.54E-03 at (  11,   6,   5)
       Max VN number:   0.36E-01 at (  11,   6,   6)
       Mesh    8
       Max CFL number:  0.97E-01 at (   5,   6,   6)
       Max divergence:  0.48E-04 at (  16,  16,  16)
       Min divergence: -0.54E-03 at (   5,   6,   6)
       Max VN number:   0.39E-01 at (   6,   6,   6)
 
       Time Step       6   June 26, 2020  16:17:47
       Step Size:    0.125E+00 s, Total Time:       0.75 s
       Pressure Iterations:      1
       Maximum Velocity Error:  0.14E-16 on Mesh   1 at (  17  10   7)
       Maximum Pressure Error:  0.29E+02 on Mesh   5 at (   8  11  10)
       ScaRC: iterations    88, residual  0.68E-08, convergence rate   0.79E+00
       ---------------------------------------------------------------
       Mesh    1
       Max CFL number:  0.71E-01 at (  10,  10,  11)
       Max divergence:  0.18E-04 at (   1,   1,   1)
       Min divergence: -0.20E-03 at (   9,   7,  11)
       Max VN number:   0.19E-01 at (   6,  12,   8)
       Mesh    2
       Max CFL number:  0.10E+00 at (   5,  11,  11)
       Max divergence:  0.18E-04 at (  16,   1,   1)
       Min divergence: -0.20E-03 at (   5,  11,  11)
       Max VN number:   0.45E-01 at (   6,  11,   7)
       Mesh    3
       Max CFL number:  0.10E+00 at (  12,   9,  11)
       Max divergence:  0.18E-04 at (   1,  16,   1)
       Min divergence: -0.20E-03 at (  12,   6,  11)
       Max VN number:   0.42E-01 at (  11,  10,  11)
       Mesh    4
       Max CFL number:  0.10E+00 at (   6,   5,   9)
       Max divergence:  0.18E-04 at (   8,   5,   1)
       Min divergence: -0.20E-03 at (   6,   5,  11)
       Max VN number:   0.41E-01 at (   6,   6,  11)
       Mesh    5
       Max CFL number:  0.68E-01 at (  14,  10,   9)
       Max divergence:  0.18E-04 at (   1,   1,  16)
       Min divergence: -0.20E-03 at (   8,   7,  10)
       Max VN number:   0.14E-01 at (  13,   7,  10)
       Mesh    6
       Max CFL number:  0.98E-01 at (   6,  12,   8)
       Max divergence:  0.18E-04 at (  16,   1,  16)
       Min divergence: -0.20E-03 at (   6,  12,   6)
       Max VN number:   0.39E-01 at (   6,  11,   6)
       Mesh    7
       Max CFL number:  0.10E+00 at (  11,   8,   5)
       Max divergence:  0.18E-04 at (   1,  16,  16)
       Min divergence: -0.20E-03 at (  11,   6,   5)
       Max VN number:   0.39E-01 at (  11,   6,   6)
       Mesh    8
       Max CFL number:  0.10E+00 at (   5,   6,   6)
       Max divergence:  0.18E-04 at (  16,  16,  16)
       Min divergence: -0.20E-03 at (   5,   6,   6)
       Max VN number:   0.42E-01 at (   6,   6,   6)
 
       Time Step       7   June 26, 2020  16:17:47
       Step Size:    0.125E+00 s, Total Time:       0.88 s
       Pressure Iterations:      1
       Maximum Velocity Error:  0.14E-16 on Mesh   1 at (  17   8   7)
       Maximum Pressure Error:  0.19E+02 on Mesh   5 at (   8  11  10)
       ScaRC: iterations    87, residual  0.97E-08, convergence rate   0.79E+00
       ---------------------------------------------------------------
       Mesh    1
       Max CFL number:  0.71E-01 at (  11,  10,  11)
       Max divergence:  0.27E-04 at (   8,  10,   9)
       Min divergence: -0.22E-05 at (   5,  16,   7)
       Max VN number:   0.19E-01 at (   6,  12,   8)
       Mesh    2
       Max CFL number:  0.10E+00 at (   6,  11,  11)
       Max divergence:  0.26E-04 at (   8,  16,   9)
       Min divergence: -0.22E-05 at (   1,  16,   5)
       Max VN number:   0.45E-01 at (   6,  11,   7)
       Mesh    3
       Max CFL number:  0.10E+00 at (  11,   9,  11)
       Max divergence:  0.26E-04 at (   9,   8,   9)
       Min divergence: -0.22E-05 at (  16,   1,   5)
       Max VN number:   0.44E-01 at (  11,  10,  11)
       Mesh    4
       Max CFL number:  0.11E+00 at (   6,   6,   9)
       Max divergence:  0.26E-04 at (   1,   8,   9)
       Min divergence: -0.23E-05 at (  10,   6,   1)
       Max VN number:   0.42E-01 at (   6,   6,  11)
       Mesh    5
       Max CFL number:  0.71E-01 at (  15,  10,   9)
       Max divergence:  0.26E-04 at (  12,   9,   8)
       Min divergence: -0.22E-05 at (  16,  16,   7)
       Max VN number:   0.15E-01 at (  13,   7,  10)
       Mesh    6
       Max CFL number:  0.10E+00 at (   6,  11,   8)
       Max divergence:  0.26E-04 at (   8,  16,   8)
       Min divergence: -0.22E-05 at (   6,  12,   1)
       Max VN number:   0.42E-01 at (   6,  11,   6)
       Mesh    7
       Max CFL number:  0.11E+00 at (  11,   8,   6)
       Max divergence:  0.26E-04 at (   9,   8,   8)
       Min divergence: -0.22E-05 at (   5,   1,   8)
       Max VN number:   0.41E-01 at (  11,   6,   6)
       Mesh    8
       Max CFL number:  0.11E+00 at (   6,   6,   6)
       Max divergence:  0.26E-04 at (   1,   8,   8)
       Min divergence: -0.22E-05 at (   1,   1,   7)
       Max VN number:   0.45E-01 at (   6,   6,   6)
 
       Time Step       8   June 26, 2020  16:17:47
       Step Size:    0.125E+00 s, Total Time:       1.00 s
       Pressure Iterations:      1
       Maximum Velocity Error:  0.14E-16 on Mesh   1 at (  17  10   9)
       Maximum Pressure Error:  0.11E+02 on Mesh   5 at (   8  11  10)
       ScaRC: iterations    83, residual  0.73E-08, convergence rate   0.78E+00
       ---------------------------------------------------------------
       Mesh    1
       Max CFL number:  0.71E-01 at (  11,  10,  11)
       Max divergence:  0.15E-03 at (   8,   9,  11)
       Min divergence: -0.13E-04 at (   7,  16,   5)
       Max VN number:   0.19E-01 at (   6,  12,   8)
       Mesh    2
       Max CFL number:  0.11E+00 at (   6,  11,  11)
       Max divergence:  0.15E-03 at (   8,   9,   9)
       Min divergence: -0.13E-04 at (   1,  16,  16)
       Max VN number:   0.45E-01 at (   6,  11,   7)
       Mesh    3
       Max CFL number:  0.10E+00 at (  11,   9,  11)
       Max divergence:  0.15E-03 at (   9,   8,   9)
       Min divergence: -0.13E-04 at (  16,   1,  16)
       Max VN number:   0.44E-01 at (  11,  10,  11)
       Mesh    4
       Max CFL number:  0.11E+00 at (   6,   6,   9)
       Max divergence:  0.15E-03 at (   8,   8,   9)
       Min divergence: -0.13E-04 at (  10,   6,   1)
       Max VN number:   0.42E-01 at (   6,   6,  11)
       Mesh    5
       Max CFL number:  0.73E-01 at (  15,  10,   9)
       Max divergence:  0.15E-03 at (  12,   9,   8)
       Min divergence: -0.13E-04 at (  16,  16,  11)
       Max VN number:   0.16E-01 at (  12,   7,  10)
       Mesh    6
       Max CFL number:  0.11E+00 at (   6,  11,   8)
       Max divergence:  0.15E-03 at (   8,  16,   8)
       Min divergence: -0.13E-04 at (   1,   3,   1)
       Max VN number:   0.44E-01 at (   6,  11,   6)
       Mesh    7
       Max CFL number:  0.11E+00 at (  11,   8,   6)
       Max divergence:  0.15E-03 at (  10,   8,   8)
       Min divergence: -0.13E-04 at (   3,   1,  12)
       Max VN number:   0.42E-01 at (  11,   6,   6)
       Mesh    8
       Max CFL number:  0.11E+00 at (   6,   6,   6)
       Max divergence:  0.15E-03 at (   8,   7,   8)
       Min divergence: -0.13E-04 at (   1,   1,   1)
       Max VN number:   0.46E-01 at (   6,   6,   6)
 
       Time Step       9   June 26, 2020  16:17:48
       Step Size:    0.125E+00 s, Total Time:       1.12 s
       Pressure Iterations:      1
       Maximum Velocity Error:  0.14E-16 on Mesh   1 at (  17   9   8)
       Maximum Pressure Error:  0.50E+01 on Mesh   5 at (   8   7  10)
       ScaRC: iterations    85, residual  0.98E-08, convergence rate   0.79E+00
       ---------------------------------------------------------------
       Mesh    1
       Max CFL number:  0.71E-01 at (  11,   8,  10)
       Max divergence:  0.20E-03 at (   8,  11,   7)
       Min divergence: -0.18E-04 at (   7,  16,   8)
       Max VN number:   0.19E-01 at (   6,  12,   8)
       Mesh    2
       Max CFL number:  0.11E+00 at (   6,  11,  11)
       Max divergence:  0.20E-03 at (   8,   9,   9)
       Min divergence: -0.18E-04 at (   7,  16,   4)
       Max VN number:   0.45E-01 at (   6,  11,   7)
       Mesh    3
       Max CFL number:  0.11E+00 at (  11,   9,  11)
       Max divergence:  0.20E-03 at (   9,   8,   9)
       Min divergence: -0.18E-04 at (  16,   1,   9)
       Max VN number:   0.45E-01 at (  11,  10,  11)
       Mesh    4
       Max CFL number:  0.11E+00 at (   6,   6,   9)
       Max divergence:  0.20E-03 at (   8,   8,   9)
       Min divergence: -0.18E-04 at (  10,   6,   1)
       Max VN number:   0.42E-01 at (   6,   6,  11)
       Mesh    5
       Max CFL number:  0.73E-01 at (  15,  10,   9)
       Max divergence:  0.20E-03 at (  12,   9,   8)
       Min divergence: -0.18E-04 at (  16,  16,   2)
       Max VN number:   0.17E-01 at (  12,   7,  10)
       Mesh    6
       Max CFL number:  0.11E+00 at (   6,  11,   8)
       Max divergence:  0.20E-03 at (   8,   9,   8)
       Min divergence: -0.18E-04 at (   1,  11,   1)
       Max VN number:   0.44E-01 at (   6,  11,   6)
       Mesh    7
       Max CFL number:  0.11E+00 at (  11,   8,   6)
       Max divergence:  0.20E-03 at (  10,   8,   8)
       Min divergence: -0.18E-04 at (   4,   1,  10)
       Max VN number:   0.42E-01 at (  11,   6,   6)
       Mesh    8
       Max CFL number:  0.11E+00 at (   6,   6,   6)
       Max divergence:  0.20E-03 at (   8,   7,   8)
       Min divergence: -0.18E-04 at (   8,   1,   1)
       Max VN number:   0.46E-01 at (   6,   6,   6)
 
       Time Step      10   June 26, 2020  16:17:48
       Step Size:    0.125E+00 s, Total Time:       1.25 s
       Pressure Iterations:      1
       Maximum Velocity Error:  0.14E-16 on Mesh   1 at (  17   7   9)
       Maximum Pressure Error:  0.19E+01 on Mesh   2 at (  10   7   7)
       ScaRC: iterations    82, residual  0.82E-08, convergence rate   0.78E+00
       ---------------------------------------------------------------
       Mesh    1
       Max CFL number:  0.71E-01 at (  11,   8,  10)
       Max divergence:  0.20E-03 at (   8,  11,   7)
       Min divergence: -0.17E-04 at (  16,  16,  12)
       Max VN number:   0.19E-01 at (   6,  12,   8)
       Mesh    2
       Max CFL number:  0.11E+00 at (   6,  11,  11)
       Max divergence:  0.20E-03 at (   8,   9,   9)
       Min divergence: -0.17E-04 at (   1,  16,   6)
       Max VN number:   0.44E-01 at (   6,  11,   7)
       Mesh    3
       Max CFL number:  0.11E+00 at (  11,   9,  11)
       Max divergence:  0.20E-03 at (   9,   8,   9)
       Min divergence: -0.17E-04 at (  16,   1,   6)
       Max VN number:   0.44E-01 at (  11,  10,  11)
       Mesh    4
       Max CFL number:  0.11E+00 at (   6,   6,   9)
       Max divergence:  0.20E-03 at (   8,   8,   9)
       Min divergence: -0.18E-04 at (  10,   6,   1)
       Max VN number:   0.41E-01 at (   6,   6,  11)
       Mesh    5
       Max CFL number:  0.73E-01 at (  15,  10,   9)
       Max divergence:  0.20E-03 at (  12,   9,   8)
       Min divergence: -0.17E-04 at (  16,  16,   8)
       Max VN number:   0.17E-01 at (  12,   7,  10)
       Mesh    6
       Max CFL number:  0.11E+00 at (   6,  11,   8)
       Max divergence:  0.20E-03 at (   8,   9,   8)
       Min divergence: -0.17E-04 at (   1,  16,   8)
       Max VN number:   0.44E-01 at (   6,  11,   6)
       Mesh    7
       Max CFL number:  0.11E+00 at (  11,   8,   6)
       Max divergence:  0.20E-03 at (  10,   8,   8)
       Min divergence: -0.17E-04 at (  16,   1,   8)
       Max VN number:   0.41E-01 at (  11,   6,   6)
       Mesh    8
       Max CFL number:  0.11E+00 at (   6,   6,   6)
       Max divergence:  0.20E-03 at (   8,   7,   8)
       Min divergence: -0.17E-04 at (   1,   1,   8)
       Max VN number:   0.46E-01 at (   6,   6,   6)
 
       Time Step      20   June 26, 2020  16:17:51
       Step Size:    0.125E+00 s, Total Time:       2.50 s
       Pressure Iterations:      1
       Maximum Velocity Error:  0.14E-16 on Mesh   1 at (  17  11   7)
       Maximum Pressure Error:  0.23E+01 on Mesh   1 at (   8  11   7)
       ScaRC: iterations    82, residual  0.75E-08, convergence rate   0.78E+00
       ---------------------------------------------------------------
       Mesh    1
       Max CFL number:  0.72E-01 at (  10,   8,  10)
       Max divergence:  0.16E-05 at (   1,   1,   1)
       Min divergence: -0.19E-04 at (  10,  11,   7)
       Max VN number:   0.19E-01 at (   6,  12,   8)
       Mesh    2
       Max CFL number:  0.11E+00 at (   5,  11,  10)
       Max divergence:  0.16E-05 at (  16,   1,   1)
       Min divergence: -0.17E-04 at (   5,  11,   7)
       Max VN number:   0.38E-01 at (   6,  11,   8)
       Mesh    3
       Max CFL number:  0.11E+00 at (  12,   8,  11)
       Max divergence:  0.16E-05 at (   1,  16,   1)
       Min divergence: -0.17E-04 at (  12,   6,  11)
       Max VN number:   0.37E-01 at (  10,  10,  11)
       Mesh    4
       Max CFL number:  0.11E+00 at (   6,   5,   9)
       Max divergence:  0.16E-05 at (   8,   6,   2)
       Min divergence: -0.17E-04 at (   6,   5,  11)
       Max VN number:   0.39E-01 at (   6,   6,   9)
       Mesh    5
       Max CFL number:  0.69E-01 at (  14,   7,   8)
       Max divergence:  0.16E-05 at (   1,   1,  16)
       Min divergence: -0.18E-04 at (   8,  11,  10)
       Max VN number:   0.16E-01 at (  12,   7,  10)
       Mesh    6
       Max CFL number:  0.11E+00 at (   6,  12,   8)
       Max divergence:  0.16E-05 at (  16,   1,  16)
       Min divergence: -0.17E-04 at (   6,  12,  10)
       Max VN number:   0.37E-01 at (   6,  10,   6)
       Mesh    7
       Max CFL number:  0.11E+00 at (  11,   8,   5)
       Max divergence:  0.16E-05 at (   1,  16,  16)
       Min divergence: -0.17E-04 at (  11,   6,   5)
       Max VN number:   0.40E-01 at (  11,   8,   6)
       Mesh    8
       Max CFL number:  0.11E+00 at (   5,   6,   6)
       Max divergence:  0.16E-05 at (  16,  16,  16)
       Min divergence: -0.17E-04 at (   5,   6,   6)
       Max VN number:   0.37E-01 at (   6,   6,   9)
 
       Time Step      30   June 26, 2020  16:17:53
       Step Size:    0.125E+00 s, Total Time:       3.75 s
       Pressure Iterations:      1
       Maximum Velocity Error:  0.14E-16 on Mesh   1 at (  17  10   7)
       Maximum Pressure Error:  0.23E+01 on Mesh   1 at (   8  11   7)
       ScaRC: iterations    82, residual  0.71E-08, convergence rate   0.78E+00
       ---------------------------------------------------------------
       Mesh    1
       Max CFL number:  0.70E-01 at (  11,   8,  10)
       Max divergence:  0.26E-05 at (   9,  11,   7)
       Min divergence: -0.21E-05 at (  11,  11,   7)
       Max VN number:   0.20E-01 at (   6,  12,   8)
       Mesh    2
       Max CFL number:  0.11E+00 at (   6,  11,  10)
       Max divergence:  0.11E-05 at (   8,   9,   9)
       Min divergence: -0.13E-05 at (   5,  11,  11)
       Max VN number:   0.41E-01 at (   6,  11,   8)
       Mesh    3
       Max CFL number:  0.11E+00 at (  11,   8,  11)
       Max divergence:  0.11E-05 at (   9,   8,   9)
       Min divergence: -0.13E-05 at (  12,   6,  11)
       Max VN number:   0.42E-01 at (  10,  10,  11)
       Mesh    4
       Max CFL number:  0.11E+00 at (   6,   5,  11)
       Max divergence:  0.11E-05 at (   8,   8,   9)
       Min divergence: -0.13E-05 at (   6,   5,  11)
       Max VN number:   0.42E-01 at (   6,   6,   9)
       Mesh    5
       Max CFL number:  0.69E-01 at (  12,   9,   8)
       Max divergence:  0.11E-05 at (  10,   9,   8)
       Min divergence: -0.18E-05 at (   8,  11,  10)
       Max VN number:   0.16E-01 at (  12,   7,  10)
       Mesh    6
       Max CFL number:  0.11E+00 at (   6,  11,   8)
       Max divergence:  0.11E-05 at (   6,  10,   8)
       Min divergence: -0.14E-05 at (   6,  12,  10)
       Max VN number:   0.41E-01 at (   6,  11,   8)
       Mesh    7
       Max CFL number:  0.11E+00 at (  11,   8,   6)
       Max divergence:  0.11E-05 at (   9,   8,   8)
       Min divergence: -0.13E-05 at (  11,   6,   5)
       Max VN number:   0.43E-01 at (  11,   8,   6)
       Mesh    8
       Max CFL number:  0.11E+00 at (   6,   6,   8)
       Max divergence:  0.11E-05 at (   8,   8,   8)
       Min divergence: -0.13E-05 at (   5,   6,  10)
       Max VN number:   0.40E-01 at (   6,   6,   9)
 
       Time Step      40   June 26, 2020  16:17:56
       Step Size:    0.125E+00 s, Total Time:       5.00 s
       Pressure Iterations:      1
       Maximum Velocity Error:  0.14E-16 on Mesh   1 at (  17  11   7)
       Maximum Pressure Error:  0.23E+01 on Mesh   1 at (   8  11   7)
       ScaRC: iterations    82, residual  0.80E-08, convergence rate   0.78E+00
       ---------------------------------------------------------------
       Mesh    1
       Max CFL number:  0.70E-01 at (  14,   9,   8)
       Max divergence:  0.19E-05 at (   9,  11,   7)
       Min divergence: -0.32E-05 at (  11,  11,  11)
       Max VN number:   0.20E-01 at (   6,  12,   8)
       Mesh    2
       Max CFL number:  0.11E+00 at (   6,  11,   8)
       Max divergence:  0.23E-06 at (  16,   1,   1)
       Min divergence: -0.21E-05 at (   5,  11,  11)
       Max VN number:   0.40E-01 at (   6,  11,  10)
       Mesh    3
       Max CFL number:  0.11E+00 at (  11,  10,  11)
       Max divergence:  0.23E-06 at (   1,  16,   1)
       Min divergence: -0.21E-05 at (  12,   6,  11)
       Max VN number:   0.41E-01 at (  11,   9,  11)
       Mesh    4
       Max CFL number:  0.11E+00 at (   6,   6,   8)
       Max divergence:  0.31E-06 at (  11,   7,   2)
       Min divergence: -0.21E-05 at (   6,   5,  11)
       Max VN number:   0.40E-01 at (   6,   6,   8)
       Mesh    5
       Max CFL number:  0.70E-01 at (  15,   9,   9)
       Max divergence:  0.23E-06 at (   1,   1,  16)
       Min divergence: -0.27E-05 at (   8,  11,  10)
       Max VN number:   0.16E-01 at (  12,   7,  10)
       Mesh    6
       Max CFL number:  0.11E+00 at (   6,  11,   7)
       Max divergence:  0.23E-06 at (  16,   1,  16)
       Min divergence: -0.21E-05 at (   6,  12,   6)
       Max VN number:   0.41E-01 at (   6,  11,   7)
       Mesh    7
       Max CFL number:  0.11E+00 at (  11,   9,   6)
       Max divergence:  0.23E-06 at (   1,  16,  16)
       Min divergence: -0.21E-05 at (  11,   6,   5)
       Max VN number:   0.42E-01 at (  11,   8,   6)
       Mesh    8
       Max CFL number:  0.11E+00 at (   7,   6,   8)
       Max divergence:  0.23E-06 at (  16,  16,  16)
       Min divergence: -0.21E-05 at (   5,   6,  10)
       Max VN number:   0.41E-01 at (   6,   6,   8)
 
       Time Step      50   June 26, 2020  16:17:59
       Step Size:    0.125E+00 s, Total Time:       6.25 s
       Pressure Iterations:      1
       Maximum Velocity Error:  0.14E-16 on Mesh   1 at (  17  11   7)
       Maximum Pressure Error:  0.23E+01 on Mesh   1 at (   8  11   7)
       ScaRC: iterations    82, residual  0.87E-08, convergence rate   0.78E+00
       ---------------------------------------------------------------
       Mesh    1
       Max CFL number:  0.70E-01 at (  10,  10,   8)
       Max divergence:  0.20E-05 at (  10,  11,   7)
       Min divergence: -0.32E-05 at (  12,   7,   7)
       Max VN number:   0.20E-01 at (   6,  12,   8)
       Mesh    2
       Max CFL number:  0.10E+00 at (   5,  11,  10)
       Max divergence:  0.22E-06 at (  16,   1,   1)
       Min divergence: -0.20E-05 at (   5,  11,  11)
       Max VN number:   0.38E-01 at (   6,  11,   9)
       Mesh    3
       Max CFL number:  0.10E+00 at (  12,   9,  11)
       Max divergence:  0.22E-06 at (   1,  16,   1)
       Min divergence: -0.19E-05 at (  12,  10,  11)
       Max VN number:   0.39E-01 at (  11,   9,  11)
       Mesh    4
       Max CFL number:  0.10E+00 at (   6,   6,   8)
       Max divergence:  0.30E-06 at (  11,   7,   2)
       Min divergence: -0.20E-05 at (   6,   5,  11)
       Max VN number:   0.38E-01 at (   6,   6,   8)
       Mesh    5
       Max CFL number:  0.70E-01 at (  16,   7,   7)
       Max divergence:  0.22E-06 at (   1,   1,  16)
       Min divergence: -0.26E-05 at (   8,  11,  10)
       Max VN number:   0.16E-01 at (  11,   7,  10)
       Mesh    6
       Max CFL number:  0.10E+00 at (   6,  10,  10)
       Max divergence:  0.22E-06 at (  16,   1,  16)
       Min divergence: -0.20E-05 at (   6,  12,   6)
       Max VN number:   0.38E-01 at (   6,  11,   7)
       Mesh    7
       Max CFL number:  0.10E+00 at (  11,   6,   5)
       Max divergence:  0.22E-06 at (   1,  16,  16)
       Min divergence: -0.20E-05 at (  11,   6,   5)
       Max VN number:   0.38E-01 at (  11,   8,   6)
       Mesh    8
       Max CFL number:  0.10E+00 at (   7,   6,   8)
       Max divergence:  0.22E-06 at (  16,  16,  16)
       Min divergence: -0.20E-05 at (   5,   6,  10)
       Max VN number:   0.38E-01 at (   6,   6,   8)
 
       Time Step      60   June 26, 2020  16:18:02
       Step Size:    0.125E+00 s, Total Time:       7.50 s
       Pressure Iterations:      1
       Maximum Velocity Error:  0.28E-16 on Mesh   3 at (   9   7  17)
       Maximum Pressure Error:  0.23E+01 on Mesh   1 at (   8   7   7)
       ScaRC: iterations    82, residual  0.92E-08, convergence rate   0.78E+00
       ---------------------------------------------------------------
       Mesh    1
       Max CFL number:  0.70E-01 at (  11,  11,   7)
       Max divergence:  0.15E-05 at (  10,  11,   7)
       Min divergence: -0.29E-05 at (  13,  11,   7)
       Max VN number:   0.20E-01 at (   6,  12,   8)
       Mesh    2
       Max CFL number:  0.10E+00 at (   5,  11,   8)
       Max divergence:  0.22E-06 at (  16,   1,   1)
       Min divergence: -0.19E-05 at (   5,  11,   7)
       Max VN number:   0.36E-01 at (   6,  11,   9)
       Mesh    3
       Max CFL number:  0.10E+00 at (  12,   9,  11)
       Max divergence:  0.22E-06 at (   1,  16,   1)
       Min divergence: -0.19E-05 at (  12,  10,  11)
       Max VN number:   0.37E-01 at (  11,   9,  11)
       Mesh    4
       Max CFL number:  0.10E+00 at (   6,   5,  10)
       Max divergence:  0.26E-06 at (  12,   7,   2)
       Min divergence: -0.19E-05 at (   6,   5,  11)
       Max VN number:   0.36E-01 at (   6,   6,   8)
       Mesh    5
       Max CFL number:  0.71E-01 at (  16,   7,   9)
       Max divergence:  0.22E-06 at (   1,   1,  16)
       Min divergence: -0.25E-05 at (   8,  11,  10)
       Max VN number:   0.16E-01 at (  16,   7,   6)
       Mesh    6
       Max CFL number:  0.10E+00 at (   6,  12,   7)
       Max divergence:  0.22E-06 at (  16,   1,  16)
       Min divergence: -0.19E-05 at (   6,  12,   6)
       Max VN number:   0.36E-01 at (   6,  11,   8)
       Mesh    7
       Max CFL number:  0.99E-01 at (  11,   8,   5)
       Max divergence:  0.22E-06 at (   1,  16,  16)
       Min divergence: -0.19E-05 at (  11,   6,   5)
       Max VN number:   0.37E-01 at (  10,   8,   7)
       Mesh    8
       Max CFL number:  0.10E+00 at (   5,   6,   9)
       Max divergence:  0.22E-06 at (  16,  16,  16)
       Min divergence: -0.19E-05 at (   5,   6,  10)
       Max VN number:   0.37E-01 at (   7,   7,   9)
 
       Time Step      70   June 26, 2020  16:18:05
       Step Size:    0.125E+00 s, Total Time:       8.75 s
       Pressure Iterations:      1
       Maximum Velocity Error:  0.28E-16 on Mesh   5 at (  17   7   8)
       Maximum Pressure Error:  0.24E+01 on Mesh   1 at (   8   7   7)
       ScaRC: iterations    82, residual  0.96E-08, convergence rate   0.78E+00
       ---------------------------------------------------------------
       Mesh    1
       Max CFL number:  0.71E-01 at (   9,   8,  10)
       Max divergence:  0.18E-05 at (  11,  11,   7)
       Min divergence: -0.28E-05 at (  13,  11,  11)
       Max VN number:   0.20E-01 at (   6,  12,   8)
       Mesh    2
       Max CFL number:  0.10E+00 at (   5,  11,   8)
       Max divergence:  0.22E-06 at (  16,   1,   1)
       Min divergence: -0.19E-05 at (   5,  11,   7)
       Max VN number:   0.37E-01 at (   7,  10,   8)
       Mesh    3
       Max CFL number:  0.10E+00 at (  12,   9,  11)
       Max divergence:  0.22E-06 at (   1,  16,   1)
       Min divergence: -0.19E-05 at (  12,  10,  11)
       Max VN number:   0.37E-01 at (  11,   9,  11)
       Mesh    4
       Max CFL number:  0.10E+00 at (   6,   5,  10)
       Max divergence:  0.30E-06 at (  12,   7,   2)
       Min divergence: -0.18E-05 at (   6,   5,  11)
       Max VN number:   0.37E-01 at (   7,   7,   8)
       Mesh    5
       Max CFL number:  0.74E-01 at (  16,   7,   9)
       Max divergence:  0.22E-06 at (   1,   1,  16)
       Min divergence: -0.25E-05 at (   8,  11,  10)
       Max VN number:   0.17E-01 at (  16,   7,  10)
       Mesh    6
       Max CFL number:  0.10E+00 at (   6,  12,   7)
       Max divergence:  0.22E-06 at (  16,   1,  16)
       Min divergence: -0.19E-05 at (   6,  12,   6)
       Max VN number:   0.36E-01 at (   6,  11,   8)
       Mesh    7
       Max CFL number:  0.10E+00 at (  11,   7,   5)
       Max divergence:  0.22E-06 at (   1,  16,  16)
       Min divergence: -0.19E-05 at (  11,   6,   5)
       Max VN number:   0.38E-01 at (  10,   8,   7)
       Mesh    8
       Max CFL number:  0.10E+00 at (   5,   6,   9)
       Max divergence:  0.22E-06 at (  16,  16,  16)
       Min divergence: -0.19E-05 at (   5,   6,   6)
       Max VN number:   0.38E-01 at (   7,   7,   9)
 
       Time Step      80   June 26, 2020  16:18:07
       Step Size:    0.125E+00 s, Total Time:      10.00 s
       Pressure Iterations:      1
       Maximum Velocity Error:  0.14E-16 on Mesh   1 at (  17  11   9)
       Maximum Pressure Error:  0.25E+01 on Mesh   1 at (   8   7   7)
       ScaRC: iterations    82, residual  0.10E-07, convergence rate   0.78E+00
       ---------------------------------------------------------------
       Mesh    1
       Max CFL number:  0.72E-01 at (  16,   8,   8)
       Max divergence:  0.19E-05 at (  12,  11,   7)
       Min divergence: -0.27E-05 at (  14,   7,   7)
       Max VN number:   0.20E-01 at (   6,  12,   8)
       Mesh    2
       Max CFL number:  0.10E+00 at (   5,  11,  10)
       Max divergence:  0.22E-06 at (  16,   1,   1)
       Min divergence: -0.19E-05 at (   5,  11,   7)
       Max VN number:   0.39E-01 at (   7,  11,  11)
       Mesh    3
       Max CFL number:  0.10E+00 at (  12,  10,  11)
       Max divergence:  0.22E-06 at (   1,  16,   1)
       Min divergence: -0.19E-05 at (  12,  10,  11)
       Max VN number:   0.40E-01 at (  10,   6,  11)
       Mesh    4
       Max CFL number:  0.10E+00 at (   6,   5,   9)
       Max divergence:  0.33E-06 at (  12,   7,   2)
       Min divergence: -0.18E-05 at (   3,  10,  11)
       Max VN number:   0.41E-01 at (   6,   7,   7)
       Mesh    5
       Max CFL number:  0.77E-01 at (  16,   7,   9)
       Max divergence:  0.22E-06 at (   1,   1,  16)
       Min divergence: -0.24E-05 at (   8,  11,  10)
       Max VN number:   0.18E-01 at (  16,   7,  10)
       Mesh    6
       Max CFL number:  0.10E+00 at (   6,  12,   7)
       Max divergence:  0.22E-06 at (  16,   1,  16)
       Min divergence: -0.19E-05 at (   3,   7,   6)
       Max VN number:   0.39E-01 at (   6,  10,   6)
       Mesh    7
       Max CFL number:  0.11E+00 at (  11,   7,   5)
       Max divergence:  0.22E-06 at (   1,  16,  16)
       Min divergence: -0.18E-05 at (  15,   6,  10)
       Max VN number:   0.39E-01 at (  10,   8,   7)
       Mesh    8
       Max CFL number:  0.11E+00 at (   5,   6,   9)
       Max divergence:  0.22E-06 at (  16,  16,  16)
       Min divergence: -0.19E-05 at (   5,   6,   6)
       Max VN number:   0.39E-01 at (   7,   7,   9)
 
       Time Step      90   June 26, 2020  16:18:10
       Step Size:    0.125E+00 s, Total Time:      11.25 s
       Pressure Iterations:      1
       Maximum Velocity Error:  0.14E-16 on Mesh   1 at (  17   7   7)
       Maximum Pressure Error:  0.25E+01 on Mesh   1 at (   8   7   7)
       ScaRC: iterations    83, residual  0.55E-08, convergence rate   0.77E+00
       ---------------------------------------------------------------
       Mesh    1
       Max CFL number:  0.73E-01 at (  16,   8,   8)
       Max divergence:  0.16E-05 at (  13,  11,   7)
       Min divergence: -0.28E-05 at (  15,  11,   7)
       Max VN number:   0.20E-01 at (   6,  12,   8)
       Mesh    2
       Max CFL number:  0.10E+00 at (   5,  11,   7)
       Max divergence:  0.22E-06 at (  16,   1,   1)
       Min divergence: -0.19E-05 at (  10,  14,  11)
       Max VN number:   0.43E-01 at (   7,  11,   7)
       Mesh    3
       Max CFL number:  0.10E+00 at (  12,  10,  11)
       Max divergence:  0.22E-06 at (   1,  16,   1)
       Min divergence: -0.19E-05 at (   7,  10,  14)
       Max VN number:   0.44E-01 at (  10,   6,  11)
       Mesh    4
       Max CFL number:  0.10E+00 at (   6,   5,   9)
       Max divergence:  0.35E-06 at (  12,   7,   2)
       Min divergence: -0.19E-05 at (   3,  10,  11)
       Max VN number:   0.43E-01 at (   6,   7,   7)
       Mesh    5
       Max CFL number:  0.79E-01 at (  16,   8,   9)
       Max divergence:  0.22E-06 at (   1,   1,  16)
       Min divergence: -0.24E-05 at (   8,  11,  10)
       Max VN number:   0.19E-01 at (  16,   7,  10)
       Mesh    6
       Max CFL number:  0.10E+00 at (   6,  12,   7)
       Max divergence:  0.22E-06 at (  16,   1,  16)
       Min divergence: -0.19E-05 at (   2,   7,   6)
       Max VN number:   0.43E-01 at (   6,  10,  10)
       Mesh    7
       Max CFL number:  0.10E+00 at (  11,   9,   5)
       Max divergence:  0.22E-06 at (   1,  16,  16)
       Min divergence: -0.19E-05 at (  14,  10,  10)
       Max VN number:   0.41E-01 at (  11,   6,   7)
       Mesh    8
       Max CFL number:  0.11E+00 at (   5,   6,   9)
       Max divergence:  0.22E-06 at (  16,  16,  16)
       Min divergence: -0.18E-05 at (  10,   3,  10)
       Max VN number:   0.42E-01 at (   7,   6,   6)
 
       Time Step     100   June 26, 2020  16:18:13
       Step Size:    0.125E+00 s, Total Time:      12.50 s
       Pressure Iterations:      1
       Maximum Velocity Error:  0.28E-16 on Mesh   2 at (   9  17   8)
       Maximum Pressure Error:  0.26E+01 on Mesh   1 at (   8   7   7)
       ScaRC: iterations    83, residual  0.57E-08, convergence rate   0.77E+00
       ---------------------------------------------------------------
       Mesh    1
       Max CFL number:  0.72E-01 at (  16,   8,   8)
       Max divergence:  0.19E-05 at (  13,  11,   7)
       Min divergence: -0.26E-05 at (  15,  11,  11)
       Max VN number:   0.20E-01 at (   6,  12,   8)
       Mesh    2
       Max CFL number:  0.10E+00 at (   5,  11,   9)
       Max divergence:  0.22E-06 at (  16,   1,   1)
       Min divergence: -0.19E-05 at (  10,  14,  11)
       Max VN number:   0.44E-01 at (   7,  11,   7)
       Mesh    3
       Max CFL number:  0.10E+00 at (  12,  10,  11)
       Max divergence:  0.22E-06 at (   1,  16,   1)
       Min divergence: -0.19E-05 at (   7,  10,  15)
       Max VN number:   0.44E-01 at (  10,  10,  11)
       Mesh    4
       Max CFL number:  0.10E+00 at (   6,   6,   9)
       Max divergence:  0.36E-06 at (  12,   7,   2)
       Min divergence: -0.19E-05 at (   2,  10,  11)
       Max VN number:   0.42E-01 at (   6,   7,  11)
       Mesh    5
       Max CFL number:  0.82E-01 at (  16,   8,   9)
       Max divergence:  0.22E-06 at (   1,   1,  16)
       Min divergence: -0.23E-05 at (   8,  11,  10)
       Max VN number:   0.20E-01 at (  16,   7,  10)
       Mesh    6
       Max CFL number:  0.10E+00 at (   6,  12,   9)
       Max divergence:  0.22E-06 at (  16,   1,  16)
       Min divergence: -0.19E-05 at (   2,   7,   6)
       Max VN number:   0.45E-01 at (   6,  10,  10)
       Mesh    7
       Max CFL number:  0.10E+00 at (  11,   9,   6)
       Max divergence:  0.22E-06 at (   1,  16,  16)
       Min divergence: -0.19E-05 at (  14,  10,  10)
       Max VN number:   0.41E-01 at (  11,   9,   6)
       Mesh    8
       Max CFL number:  0.11E+00 at (   5,   6,   9)
       Max divergence:  0.22E-06 at (  16,  16,  16)
       Min divergence: -0.18E-05 at (  10,   3,  10)
       Max VN number:   0.43E-01 at (   7,   6,   6)
 
       Time Step     200   June 26, 2020  16:18:42
       Step Size:    0.125E+00 s, Total Time:      25.00 s
       Pressure Iterations:      1
       Maximum Velocity Error:  0.28E-16 on Mesh   2 at (  10  17   9)
       Maximum Pressure Error:  0.26E+01 on Mesh   2 at (  10   7   7)
       ScaRC: iterations    83, residual  0.80E-08, convergence rate   0.78E+00
       ---------------------------------------------------------------
       Mesh    1
       Max CFL number:  0.72E-01 at (  16,   9,   9)
       Max divergence:  0.38E-06 at (  16,  11,  11)
       Min divergence:  0.12E-06 at (   6,  10,  12)
       Max VN number:   0.22E-01 at (   6,  10,  12)
       Mesh    2
       Max CFL number:  0.10E+00 at (   6,  11,   8)
       Max divergence:  0.29E-05 at (   6,  11,   7)
       Min divergence: -0.29E-05 at (   6,  10,   7)
       Max VN number:   0.47E-01 at (   9,   8,  10)
       Mesh    3
       Max CFL number:  0.11E+00 at (  12,   8,  11)
       Max divergence:  0.16E-05 at (  11,   8,  12)
       Min divergence: -0.22E-05 at (  11,   6,  12)
       Max VN number:   0.43E-01 at (   8,   9,   8)
       Mesh    4
       Max CFL number:  0.10E+00 at (   2,  10,  10)
       Max divergence:  0.11E-05 at (   9,  10,   7)
       Min divergence: -0.19E-05 at (   3,  10,   7)
       Max VN number:   0.44E-01 at (   9,   9,   9)
       Mesh    5
       Max CFL number:  0.93E-01 at (  16,   8,   8)
       Max divergence:  0.21E-06 at (   1,   1,  16)
       Min divergence: -0.20E-05 at (   8,   7,  10)
       Max VN number:   0.24E-01 at (  16,   7,   6)
       Mesh    6
       Max CFL number:  0.98E-01 at (   2,   7,   8)
       Max divergence:  0.74E-06 at (  10,   7,   7)
       Min divergence: -0.19E-05 at (   3,   7,  10)
       Max VN number:   0.46E-01 at (   9,   8,   9)
       Mesh    7
       Max CFL number:  0.99E-01 at (  15,   7,  10)
       Max divergence:  0.15E-05 at (   8,   6,  10)
       Min divergence: -0.20E-05 at (  14,  10,  10)
       Max VN number:   0.46E-01 at (   8,   8,   9)
       Mesh    8
       Max CFL number:  0.11E+00 at (   5,   6,   8)
       Max divergence:  0.21E-05 at (  10,   9,  10)
       Min divergence: -0.22E-05 at (   6,   5,   6)
       Max VN number:   0.46E-01 at (   9,   9,   8)
 
       Time Step     300   June 26, 2020  16:19:11
       Step Size:    0.125E+00 s, Total Time:      37.50 s
       Pressure Iterations:      1
       Maximum Velocity Error:  0.28E-16 on Mesh   2 at (   9  17   7)
       Maximum Pressure Error:  0.31E+01 on Mesh   2 at (  10   7   7)
       ScaRC: iterations    83, residual  0.94E-08, convergence rate   0.78E+00
       ---------------------------------------------------------------
       Mesh    1
       Max CFL number:  0.72E-01 at (  16,  10,   8)
       Max divergence:  0.33E-06 at (   8,   7,  11)
       Min divergence:  0.11E-06 at (   6,  10,  12)
       Max VN number:   0.22E-01 at (   6,   8,  12)
       Mesh    2
       Max CFL number:  0.11E+00 at (   9,  15,   8)
       Max divergence:  0.86E-05 at (   9,   9,   8)
       Min divergence: -0.16E-04 at (   8,   8,   9)
       Max VN number:   0.49E-01 at (   8,   8,   9)
       Mesh    3
       Max CFL number:  0.12E+00 at (  11,  10,  11)
       Max divergence:  0.49E-05 at (  11,   6,  15)
       Min divergence: -0.31E-05 at (  10,   6,  15)
       Max VN number:   0.46E-01 at (   8,   9,   8)
       Mesh    4
       Max CFL number:  0.11E+00 at (   9,   1,   8)
       Max divergence:  0.24E-05 at (   8,   1,   7)
       Min divergence: -0.41E-05 at (  10,   1,   7)
       Max VN number:   0.48E-01 at (   9,   8,   9)
       Mesh    5
       Max CFL number:  0.97E-01 at (  16,   8,   8)
       Max divergence:  0.20E-06 at (   1,   1,  16)
       Min divergence: -0.18E-05 at (   8,  11,   7)
       Max VN number:   0.27E-01 at (  16,   7,  10)
       Mesh    6
       Max CFL number:  0.10E+00 at (   9,  16,   7)
       Max divergence:  0.13E-05 at (   4,  11,   7)
       Min divergence: -0.18E-05 at (   3,   7,  10)
       Max VN number:   0.47E-01 at (   9,   9,   8)
       Mesh    7
       Max CFL number:  0.11E+00 at (   8,   7,   1)
       Max divergence:  0.11E-05 at (  13,   8,   6)
       Min divergence: -0.19E-05 at (  15,  10,  10)
       Max VN number:   0.51E-01 at (   8,   8,   8)
       Mesh    8
       Max CFL number:  0.12E+00 at (   6,   6,  10)
       Max divergence:  0.70E-05 at (   6,   2,   6)
       Min divergence: -0.36E-05 at (   7,   2,   6)
       Max VN number:   0.46E-01 at (   9,   9,   9)
 
       Time Step     400   June 26, 2020  16:19:39
       Step Size:    0.125E+00 s, Total Time:      50.00 s
       Pressure Iterations:      1
       Maximum Velocity Error:  0.28E-16 on Mesh   2 at (  10  17   7)
       Maximum Pressure Error:  0.28E+01 on Mesh   2 at (  10   7   7)
       ScaRC: iterations    84, residual  0.92E-08, convergence rate   0.78E+00
       ---------------------------------------------------------------
       Mesh    1
       Max CFL number:  0.73E-01 at (  16,  10,   9)
       Max divergence:  0.32E-06 at (   8,   7,  11)
       Min divergence:  0.11E-06 at (   6,  10,  12)
       Max VN number:   0.21E-01 at (   6,   8,  12)
       Mesh    2
       Max CFL number:  0.12E+00 at (   9,  15,   8)
       Max divergence:  0.63E-05 at (   6,  13,  11)
       Min divergence: -0.68E-05 at (   6,  12,   9)
       Max VN number:   0.45E-01 at (   8,   8,   9)
       Mesh    3
       Max CFL number:  0.12E+00 at (   8,   7,  14)
       Max divergence:  0.24E-05 at (  11,   6,   7)
       Min divergence: -0.25E-05 at (  11,   6,  12)
       Max VN number:   0.51E-01 at (   9,   8,   8)
       Mesh    4
       Max CFL number:  0.12E+00 at (   9,   1,  10)
       Max divergence:  0.43E-05 at (   9,   7,   8)
       Min divergence: -0.49E-05 at (   9,   8,   9)
       Max VN number:   0.38E-01 at (   9,   8,   9)
       Mesh    5
       Max CFL number:  0.11E+00 at (  16,   9,   9)
       Max divergence:  0.25E-06 at (  11,  10,   6)
       Min divergence: -0.18E-05 at (   8,  10,  10)
       Max VN number:   0.28E-01 at (  14,   7,   6)
       Mesh    6
       Max CFL number:  0.11E+00 at (   9,  16,   7)
       Max divergence:  0.23E-05 at (   6,  13,   6)
       Min divergence: -0.29E-05 at (   6,  15,   6)
       Max VN number:   0.44E-01 at (   6,  15,   6)
       Mesh    7
       Max CFL number:  0.12E+00 at (   8,   7,   1)
       Max divergence:  0.23E-05 at (  12,   8,   6)
       Min divergence: -0.26E-05 at (  11,   6,   2)
       Max VN number:   0.47E-01 at (  11,   6,   2)
       Mesh    8
       Max CFL number:  0.12E+00 at (   7,   4,   6)
       Max divergence:  0.17E-05 at (   6,  10,   6)
       Min divergence: -0.27E-05 at (   6,   5,   6)
       Max VN number:   0.47E-01 at (   8,   9,   8)
 
       Time Step     500   June 26, 2020  16:20:09
       Step Size:    0.125E+00 s, Total Time:      62.50 s
       Pressure Iterations:      1
       Maximum Velocity Error:  0.28E-16 on Mesh   2 at (   8  17   9)
       Maximum Pressure Error:  0.28E+01 on Mesh   2 at (  10   7   7)
       ScaRC: iterations    84, residual  0.99E-08, convergence rate   0.78E+00
       ---------------------------------------------------------------
       Mesh    1
       Max CFL number:  0.75E-01 at (  14,   8,  10)
       Max divergence:  0.32E-06 at (   8,  11,   7)
       Min divergence: -0.21E-06 at (  16,  16,   6)
       Max VN number:   0.20E-01 at (   6,  11,   7)
       Mesh    2
       Max CFL number:  0.12E+00 at (   9,  15,   8)
       Max divergence:  0.39E-05 at (   6,  12,  11)
       Min divergence: -0.55E-05 at (   6,  13,  11)
       Max VN number:   0.42E-01 at (  10,  15,   7)
       Mesh    3
       Max CFL number:  0.13E+00 at (   7,   9,  16)
       Max divergence:  0.25E-05 at (  11,   6,   7)
       Min divergence: -0.26E-05 at (  16,  10,   7)
       Max VN number:   0.47E-01 at (  10,   7,  11)
       Mesh    4
       Max CFL number:  0.12E+00 at (   9,   1,   8)
       Max divergence:  0.27E-05 at (   8,   9,   8)
       Min divergence: -0.59E-05 at (   9,   9,  10)
       Max VN number:   0.40E-01 at (  10,   1,   7)
       Mesh    5
       Max CFL number:  0.11E+00 at (  16,   7,   8)
       Max divergence:  0.74E-06 at (  13,  10,   6)
       Min divergence: -0.20E-05 at (   8,   7,   6)
       Max VN number:   0.29E-01 at (  16,   7,   6)
       Mesh    6
       Max CFL number:  0.13E+00 at (  10,  16,  10)
       Max divergence:  0.11E-05 at (   5,  11,   7)
       Min divergence: -0.20E-05 at (  10,  16,   9)
       Max VN number:   0.42E-01 at (   7,  10,   7)
       Mesh    7
       Max CFL number:  0.13E+00 at (   7,   9,   1)
       Max divergence:  0.14E-05 at (  12,   8,   6)
       Min divergence: -0.20E-05 at (   7,   9,   1)
       Max VN number:   0.39E-01 at (  11,   6,   6)
       Mesh    8
       Max CFL number:  0.13E+00 at (  10,   1,  10)
       Max divergence:  0.24E-05 at (   6,  10,   6)
       Min divergence: -0.26E-05 at (   6,   2,   6)
       Max VN number:   0.44E-01 at (   9,   9,   8)
 
       Time Step     600   June 26, 2020  16:20:38
       Step Size:    0.125E+00 s, Total Time:      75.00 s
       Pressure Iterations:      1
       Maximum Velocity Error:  0.28E-16 on Mesh   2 at (   8  17   7)
       Maximum Pressure Error:  0.29E+01 on Mesh   2 at (  10   7   7)
       ScaRC: iterations    84, residual  0.90E-08, convergence rate   0.78E+00
       ---------------------------------------------------------------
       Mesh    1
       Max CFL number:  0.75E-01 at (  16,   8,   9)
       Max divergence:  0.31E-06 at (   8,  11,   7)
       Min divergence: -0.12E-06 at (  15,  14,   6)
       Max VN number:   0.21E-01 at (   6,  12,   9)
       Mesh    2
       Max CFL number:  0.12E+00 at (   9,  15,  10)
       Max divergence:  0.23E-05 at (   6,  11,   7)
       Min divergence: -0.33E-05 at (   6,  12,   7)
       Max VN number:   0.44E-01 at (   9,   8,   9)
       Mesh    3
       Max CFL number:  0.12E+00 at (  11,   8,  11)
       Max divergence:  0.30E-05 at (  10,   8,   8)
       Min divergence: -0.71E-05 at (   9,   8,   8)
       Max VN number:   0.54E-01 at (   8,   8,   8)
       Mesh    4
       Max CFL number:  0.12E+00 at (   9,   1,  10)
       Max divergence:  0.30E-05 at (   6,   6,  11)
       Min divergence: -0.61E-05 at (   5,   6,  11)
       Max VN number:   0.40E-01 at (  10,   1,   7)
       Mesh    5
       Max CFL number:  0.11E+00 at (  16,   7,   7)
       Max divergence:  0.95E-06 at (  15,  10,  10)
       Min divergence: -0.20E-05 at (   8,   8,  10)
       Max VN number:   0.32E-01 at (  16,   7,  10)
       Mesh    6
       Max CFL number:  0.12E+00 at (   2,   7,   7)
       Max divergence:  0.25E-05 at (   7,   8,   6)
       Min divergence: -0.21E-05 at (   3,   7,  10)
       Max VN number:   0.42E-01 at (   6,   8,   6)
       Mesh    7
       Max CFL number:  0.12E+00 at (  15,   7,  10)
       Max divergence:  0.30E-05 at (  16,  10,   7)
       Min divergence: -0.23E-05 at (  10,   6,  10)
       Max VN number:   0.45E-01 at (  11,   6,   9)
       Mesh    8
       Max CFL number:  0.12E+00 at (   1,   8,  10)
       Max divergence:  0.35E-05 at (  10,   9,  10)
       Min divergence: -0.27E-05 at (   9,   9,  10)
       Max VN number:   0.55E-01 at (   9,   9,   8)
 
       Time Step     700   June 26, 2020  16:21:07
       Step Size:    0.125E+00 s, Total Time:      87.50 s
       Pressure Iterations:      1
       Maximum Velocity Error:  0.28E-16 on Mesh   2 at (  10  17   7)
       Maximum Pressure Error:  0.28E+01 on Mesh   2 at (  10   7   7)
       ScaRC: iterations    85, residual  0.53E-08, convergence rate   0.78E+00
       ---------------------------------------------------------------
       Mesh    1
       Max CFL number:  0.74E-01 at (  16,   8,   9)
       Max divergence:  0.31E-06 at (   8,   7,   7)
       Min divergence: -0.95E-07 at (  14,  13,   6)
       Max VN number:   0.21E-01 at (   6,  12,   9)
       Mesh    2
       Max CFL number:  0.12E+00 at (   9,  15,   8)
       Max divergence:  0.18E-05 at (   6,  11,   7)
       Min divergence: -0.28E-05 at (   6,  12,   7)
       Max VN number:   0.42E-01 at (   9,   8,   9)
       Mesh    3
       Max CFL number:  0.12E+00 at (  11,   8,  11)
       Max divergence:  0.35E-05 at (   9,  10,  11)
       Min divergence: -0.42E-05 at (  11,  10,  12)
       Max VN number:   0.52E-01 at (   9,   8,  10)
       Mesh    4
       Max CFL number:  0.12E+00 at (   9,   1,  10)
       Max divergence:  0.30E-05 at (   2,   6,   9)
       Min divergence: -0.44E-05 at (   5,   6,  11)
       Max VN number:   0.40E-01 at (  10,   1,   7)
       Mesh    5
       Max CFL number:  0.12E+00 at (  16,   7,   8)
       Max divergence:  0.17E-05 at (  12,  11,  10)
       Min divergence: -0.19E-05 at (   8,   8,   6)
       Max VN number:   0.36E-01 at (  15,  10,  10)
       Mesh    6
       Max CFL number:  0.12E+00 at (   1,   7,   8)
       Max divergence:  0.33E-05 at (  10,   7,   8)
       Min divergence: -0.23E-05 at (   8,   7,   7)
       Max VN number:   0.40E-01 at (   2,  11,  10)
       Mesh    7
       Max CFL number:  0.12E+00 at (  15,   8,  10)
       Max divergence:  0.22E-05 at (   9,  10,   1)
       Min divergence: -0.29E-05 at (  10,  10,   1)
       Max VN number:   0.42E-01 at (  11,   9,   6)
       Mesh    8
       Max CFL number:  0.12E+00 at (   1,   8,  10)
       Max divergence:  0.36E-05 at (   6,  10,   6)
       Min divergence: -0.26E-05 at (  10,   5,   9)
       Max VN number:   0.53E-01 at (   8,   9,   8)
 
       Time Step     800   June 26, 2020  16:21:36
       Step Size:    0.125E+00 s, Total Time:     100.00 s
       Pressure Iterations:      1
       Maximum Velocity Error:  0.28E-16 on Mesh   2 at (  10  17   7)
       Maximum Pressure Error:  0.27E+01 on Mesh   1 at (   8  11   7)
       ScaRC: iterations    85, residual  0.56E-08, convergence rate   0.78E+00
       ---------------------------------------------------------------
       Mesh    1
       Max CFL number:  0.79E-01 at (   9,   8,   9)
       Max divergence:  0.31E-06 at (   8,  11,   7)
       Min divergence: -0.52E-07 at (  12,  12,   6)
       Max VN number:   0.22E-01 at (   6,   6,   9)
       Mesh    2
       Max CFL number:  0.12E+00 at (   9,  16,   8)
       Max divergence:  0.13E-05 at (   6,  11,  10)
       Min divergence: -0.27E-05 at (   6,  12,   9)
       Max VN number:   0.42E-01 at (   7,  11,   7)
       Mesh    3
       Max CFL number:  0.13E+00 at (   7,   6,  16)
       Max divergence:  0.48E-05 at (  11,   9,  13)
       Min divergence: -0.51E-05 at (   9,  10,  13)
       Max VN number:   0.44E-01 at (   7,   6,  14)
       Mesh    4
       Max CFL number:  0.12E+00 at (   9,   1,   9)
       Max divergence:  0.22E-05 at (   2,   7,  10)
       Min divergence: -0.27E-05 at (   1,   7,  11)
       Max VN number:   0.41E-01 at (  10,   1,   7)
       Mesh    5
       Max CFL number:  0.12E+00 at (  13,   7,   7)
       Max divergence:  0.10E-05 at (   9,  11,   8)
       Min divergence: -0.24E-05 at (  10,  11,  10)
       Max VN number:   0.52E-01 at (   8,  11,   6)
       Mesh    6
       Max CFL number:  0.12E+00 at (   6,  10,   6)
       Max divergence:  0.14E-05 at (   8,  10,  10)
       Min divergence: -0.20E-05 at (   2,   7,   9)
       Max VN number:   0.40E-01 at (   7,  10,   9)
       Mesh    7
       Max CFL number:  0.12E+00 at (   7,   6,   1)
       Max divergence:  0.42E-05 at (  11,   6,   6)
       Min divergence: -0.38E-05 at (   8,   8,   9)
       Max VN number:   0.49E-01 at (   8,   8,   9)
       Mesh    8
       Max CFL number:  0.11E+00 at (  10,   1,   8)
       Max divergence:  0.14E-05 at (  10,   4,   8)
       Min divergence: -0.20E-05 at (   6,   1,   6)
       Max VN number:   0.44E-01 at (  10,   5,  10)
 
       Time Step     900   June 26, 2020  16:22:05
       Step Size:    0.125E+00 s, Total Time:     112.50 s
       Pressure Iterations:      1
       Maximum Velocity Error:  0.28E-16 on Mesh   3 at (   7   6  17)
       Maximum Pressure Error:  0.27E+01 on Mesh   1 at (   8  11   7)
       ScaRC: iterations    85, residual  0.57E-08, convergence rate   0.78E+00
       ---------------------------------------------------------------
       Mesh    1
       Max CFL number:  0.76E-01 at (   9,   8,   9)
       Max divergence:  0.31E-06 at (   8,  11,  11)
       Min divergence: -0.46E-07 at (  14,  16,   7)
       Max VN number:   0.21E-01 at (   6,   6,  10)
       Mesh    2
       Max CFL number:  0.13E+00 at (   9,  16,   8)
       Max divergence:  0.97E-06 at (   7,  12,   7)
       Min divergence: -0.21E-05 at (   7,  13,  10)
       Max VN number:   0.50E-01 at (   7,  14,  10)
       Mesh    3
       Max CFL number:  0.13E+00 at (  11,   8,  11)
       Max divergence:  0.49E-05 at (  11,   8,  11)
       Min divergence: -0.44E-05 at (   9,  10,  14)
       Max VN number:   0.48E-01 at (  10,   8,  11)
       Mesh    4
       Max CFL number:  0.12E+00 at (   9,   1,   8)
       Max divergence:  0.82E-06 at (   1,   7,  11)
       Min divergence: -0.10E-05 at (   2,   6,  10)
       Max VN number:   0.42E-01 at (  10,   1,   7)
       Mesh    5
       Max CFL number:  0.11E+00 at (  15,   7,   7)
       Max divergence:  0.70E-06 at (  10,   7,   6)
       Min divergence: -0.30E-05 at (   8,  11,   9)
       Max VN number:   0.58E-01 at (   8,  10,   6)
       Mesh    6
       Max CFL number:  0.12E+00 at (  10,  15,   6)
       Max divergence:  0.38E-05 at (   7,   9,   6)
       Min divergence: -0.22E-05 at (   9,   9,   6)
       Max VN number:   0.39E-01 at (   9,  10,   6)
       Mesh    7
       Max CFL number:  0.12E+00 at (   7,   9,   1)
       Max divergence:  0.41E-05 at (  11,   8,   6)
       Min divergence: -0.66E-05 at (  12,   7,   6)
       Max VN number:   0.44E-01 at (   8,   9,   8)
       Mesh    8
       Max CFL number:  0.11E+00 at (  10,   1,   6)
       Max divergence:  0.28E-05 at (  10,   6,  10)
       Min divergence: -0.30E-05 at (  10,   6,   9)
       Max VN number:   0.34E-01 at (   7,   6,   6)
 
       Time Step    1000   June 26, 2020  16:22:34
       Step Size:    0.125E+00 s, Total Time:     125.00 s
       Pressure Iterations:      1
       Maximum Velocity Error:  0.28E-16 on Mesh   2 at (  10  17   7)
       Maximum Pressure Error:  0.29E+01 on Mesh   2 at (  10   7   7)
       ScaRC: iterations    84, residual  0.84E-08, convergence rate   0.78E+00
       ---------------------------------------------------------------
       Mesh    1
       Max CFL number:  0.75E-01 at (  16,   8,   9)
       Max divergence:  0.30E-06 at (   8,  11,  11)
       Min divergence: -0.39E-07 at (  13,  15,   7)
       Max VN number:   0.21E-01 at (   6,   8,   6)
       Mesh    2
       Max CFL number:  0.12E+00 at (   9,  16,  10)
       Max divergence:  0.72E-06 at (   6,  11,  11)
       Min divergence: -0.13E-05 at (   7,  13,  10)
       Max VN number:   0.43E-01 at (   7,  11,   7)
       Mesh    3
       Max CFL number:  0.12E+00 at (  11,   9,  11)
       Max divergence:  0.19E-05 at (  11,   9,  11)
       Min divergence: -0.31E-05 at (  10,   9,  13)
       Max VN number:   0.49E-01 at (   8,   8,   8)
       Mesh    4
       Max CFL number:  0.12E+00 at (   9,   2,  10)
       Max divergence:  0.57E-06 at (   3,   8,   7)
       Min divergence: -0.79E-06 at (   4,   6,   7)
       Max VN number:   0.39E-01 at (  10,   3,   7)
       Mesh    5
       Max CFL number:  0.12E+00 at (  16,   7,   8)
       Max divergence:  0.26E-05 at (   9,  10,   6)
       Min divergence: -0.27E-05 at (   8,  10,   6)
       Max VN number:   0.48E-01 at (   9,  10,   7)
       Mesh    6
       Max CFL number:  0.13E+00 at (   6,  11,   8)
       Max divergence:  0.35E-05 at (   9,   7,   9)
       Min divergence: -0.26E-05 at (   9,  15,   9)
       Max VN number:   0.47E-01 at (   9,   9,   6)
       Mesh    7
       Max CFL number:  0.13E+00 at (  15,   6,  10)
       Max divergence:  0.52E-05 at (  11,   6,   7)
       Min divergence: -0.69E-05 at (  12,   6,   7)
       Max VN number:   0.54E-01 at (  11,   9,   6)
       Mesh    8
       Max CFL number:  0.13E+00 at (   1,   6,  10)
       Max divergence:  0.25E-05 at (   6,   6,   9)
       Min divergence: -0.30E-05 at (   4,   7,   8)
       Max VN number:   0.36E-01 at (   1,   6,  10)
 
       Time Step    1100   June 26, 2020  16:23:03
       Step Size:    0.125E+00 s, Total Time:     137.50 s
       Pressure Iterations:      1
       Maximum Velocity Error:  0.28E-16 on Mesh   2 at (  10  17   8)
       Maximum Pressure Error:  0.30E+01 on Mesh   2 at (  10   7   7)
       ScaRC: iterations    84, residual  0.90E-08, convergence rate   0.78E+00
       ---------------------------------------------------------------
       Mesh    1
       Max CFL number:  0.70E-01 at (  15,   8,  10)
       Max divergence:  0.30E-06 at (   8,   7,   7)
       Min divergence: -0.12E-06 at (  16,   6,   6)
       Max VN number:   0.21E-01 at (   6,  10,   6)
       Mesh    2
       Max CFL number:  0.11E+00 at (   9,  16,   9)
       Max divergence:  0.63E-06 at (   7,  13,   7)
       Min divergence: -0.93E-06 at (   7,  14,  10)
       Max VN number:   0.42E-01 at (   9,   8,   9)
       Mesh    3
       Max CFL number:  0.12E+00 at (  12,  10,  11)
       Max divergence:  0.18E-05 at (  10,  10,  12)
       Min divergence: -0.45E-05 at (  10,   9,  13)
       Max VN number:   0.49E-01 at (   9,   8,   8)
       Mesh    4
       Max CFL number:  0.11E+00 at (   9,   1,   9)
       Max divergence:  0.61E-06 at (   6,  11,   5)
       Min divergence: -0.52E-06 at (   5,   6,   7)
       Max VN number:   0.39E-01 at (  10,   1,   7)
       Mesh    5
       Max CFL number:  0.15E+00 at (  16,   7,   7)
       Max divergence:  0.24E-05 at (  11,  10,   6)
       Min divergence: -0.19E-05 at (   8,  11,   9)
       Max VN number:   0.47E-01 at (  16,   7,  10)
       Mesh    6
       Max CFL number:  0.15E+00 at (   1,   7,   7)
       Max divergence:  0.31E-05 at (  10,   8,   9)
       Min divergence: -0.30E-05 at (   9,  14,   9)
       Max VN number:   0.51E-01 at (   2,   7,  10)
       Mesh    7
       Max CFL number:  0.12E+00 at (  15,   7,  10)
       Max divergence:  0.36E-05 at (  13,   6,   7)
       Min divergence: -0.42E-05 at (  13,   6,   8)
       Max VN number:   0.49E-01 at (  10,   8,   6)
       Mesh    8
       Max CFL number:  0.12E+00 at (   1,  10,  10)
       Max divergence:  0.29E-05 at (   7,   6,  10)
       Min divergence: -0.32E-05 at (   7,   5,  10)
       Max VN number:   0.46E-01 at (   1,  10,  10)
 
       Time Step    1200   June 26, 2020  16:23:33
       Step Size:    0.125E+00 s, Total Time:     150.00 s
       Pressure Iterations:      1
       Maximum Velocity Error:  0.28E-16 on Mesh   2 at (  10  17   9)
       Maximum Pressure Error:  0.29E+01 on Mesh   2 at (  10   7   7)
       ScaRC: iterations    85, residual  0.61E-08, convergence rate   0.78E+00
       ---------------------------------------------------------------
       Mesh    1
       Max CFL number:  0.69E-01 at (  14,   8,   8)
       Max divergence:  0.29E-06 at (   8,   7,   7)
       Min divergence: -0.11E-06 at (  10,   6,   6)
       Max VN number:   0.21E-01 at (   6,  12,  10)
       Mesh    2
       Max CFL number:  0.11E+00 at (   9,  16,   9)
       Max divergence:  0.53E-06 at (   8,  14,  11)
       Min divergence: -0.92E-06 at (   6,  13,   7)
       Max VN number:   0.42E-01 at (   9,   8,   9)
       Mesh    3
       Max CFL number:  0.12E+00 at (  10,   9,  11)
       Max divergence:  0.11E-05 at (   8,  10,  14)
       Min divergence: -0.21E-05 at (  10,   9,  13)
       Max VN number:   0.44E-01 at (   8,   9,   9)
       Mesh    4
       Max CFL number:  0.11E+00 at (   9,   1,   9)
       Max divergence:  0.62E-06 at (  11,   6,   5)
       Min divergence: -0.45E-06 at (  12,   9,   2)
       Max VN number:   0.36E-01 at (  10,   1,   7)
       Mesh    5
       Max CFL number:  0.12E+00 at (  13,   7,   7)
       Max divergence:  0.16E-05 at (   9,  11,  10)
       Min divergence: -0.23E-05 at (   8,  11,   8)
       Max VN number:   0.49E-01 at (   9,   9,   7)
       Mesh    6
       Max CFL number:  0.11E+00 at (   2,   8,   9)
       Max divergence:  0.15E-05 at (  10,   8,   8)
       Min divergence: -0.42E-05 at (   9,  12,   8)
       Max VN number:   0.44E-01 at (   9,  12,   8)
       Mesh    7
       Max CFL number:  0.12E+00 at (   7,   9,   2)
       Max divergence:  0.23E-05 at (  16,   6,   9)
       Min divergence: -0.50E-05 at (  16,   7,   8)
       Max VN number:   0.43E-01 at (  10,   8,   7)
       Mesh    8
       Max CFL number:  0.11E+00 at (   3,  10,  10)
       Max divergence:  0.19E-05 at (   3,   6,   7)
       Min divergence: -0.40E-05 at (   1,   7,   9)
       Max VN number:   0.40E-01 at (   3,  10,  10)
 
       Time Step    1300   June 26, 2020  16:24:02
       Step Size:    0.125E+00 s, Total Time:     162.50 s
       Pressure Iterations:      1
       Maximum Velocity Error:  0.28E-16 on Mesh   2 at (  10  17   9)
       Maximum Pressure Error:  0.30E+01 on Mesh   2 at (  10   7   7)
       ScaRC: iterations    85, residual  0.62E-08, convergence rate   0.78E+00
       ---------------------------------------------------------------
       Mesh    1
       Max CFL number:  0.71E-01 at (  15,   9,  10)
       Max divergence:  0.29E-06 at (   8,  11,  11)
       Min divergence: -0.17E-06 at (   6,   7,   6)
       Max VN number:   0.22E-01 at (   6,  12,  10)
       Mesh    2
       Max CFL number:  0.11E+00 at (   9,  15,   9)
       Max divergence:  0.58E-06 at (   6,  11,  11)
       Min divergence: -0.11E-05 at (   6,  12,   7)
       Max VN number:   0.46E-01 at (   7,  11,   7)
       Mesh    3
       Max CFL number:  0.12E+00 at (  11,   9,  11)
       Max divergence:  0.82E-06 at (  10,  10,  12)
       Min divergence: -0.18E-05 at (   9,  10,  16)
       Max VN number:   0.49E-01 at (  10,   8,  10)
       Mesh    4
       Max CFL number:  0.11E+00 at (   9,   2,   8)
       Max divergence:  0.56E-06 at (  11,   6,   5)
       Min divergence: -0.53E-06 at (  12,   9,   2)
       Max VN number:   0.36E-01 at (  10,   1,   7)
       Mesh    5
       Max CFL number:  0.12E+00 at (  16,   7,   6)
       Max divergence:  0.13E-05 at (  14,   9,   6)
       Min divergence: -0.18E-05 at (   8,  11,   9)
       Max VN number:   0.40E-01 at (   9,  10,   7)
       Mesh    6
       Max CFL number:  0.12E+00 at (   1,   7,   6)
       Max divergence:  0.36E-05 at (   6,  11,   8)
       Min divergence: -0.41E-05 at (   5,  11,   6)
       Max VN number:   0.41E-01 at (   7,  10,   8)
       Mesh    7
       Max CFL number:  0.12E+00 at (  11,   6,   6)
       Max divergence:  0.94E-06 at (  11,   6,   6)
       Min divergence: -0.18E-05 at (  12,   6,   6)
       Max VN number:   0.47E-01 at (  11,   8,   6)
       Mesh    8
       Max CFL number:  0.11E+00 at (  10,   2,   6)
       Max divergence:  0.28E-05 at (   6,   6,  10)
       Min divergence: -0.23E-05 at (   7,   2,   9)
       Max VN number:   0.38E-01 at (   6,   6,   7)
 
       Time Step    1400   June 26, 2020  16:24:31
       Step Size:    0.125E+00 s, Total Time:     175.00 s
       Pressure Iterations:      1
       Maximum Velocity Error:  0.28E-16 on Mesh   2 at (   9  17   8)
       Maximum Pressure Error:  0.30E+01 on Mesh   2 at (  10   7   7)
       ScaRC: iterations    85, residual  0.64E-08, convergence rate   0.78E+00
       ---------------------------------------------------------------
       Mesh    1
       Max CFL number:  0.71E-01 at (  16,   9,  10)
       Max divergence:  0.27E-06 at (   8,  11,  11)
       Min divergence: -0.18E-06 at (   6,   6,   6)
       Max VN number:   0.22E-01 at (   6,  10,   6)
       Mesh    2
       Max CFL number:  0.11E+00 at (   9,  16,   9)
       Max divergence:  0.56E-06 at (   6,  11,  11)
       Min divergence: -0.91E-06 at (   6,  12,  11)
       Max VN number:   0.39E-01 at (   7,  10,   8)
       Mesh    3
       Max CFL number:  0.12E+00 at (  10,   9,  11)
       Max divergence:  0.10E-05 at (   8,  10,  15)
       Min divergence: -0.14E-05 at (  10,   9,  13)
       Max VN number:   0.52E-01 at (   8,   8,   8)
       Mesh    4
       Max CFL number:  0.11E+00 at (   9,   1,   9)
       Max divergence:  0.52E-06 at (  11,   6,   5)
       Min divergence: -0.48E-06 at (  11,   3,   6)
[...]
       Max divergence:  0.41E-06 at (   7,  12,  11)
       Min divergence: -0.68E-06 at (   6,  12,   9)
       Max VN number:   0.41E-01 at (   7,  11,  11)
       Mesh    3
       Max CFL number:  0.12E+00 at (  11,   8,  11)
       Max divergence:  0.51E-06 at (   9,  10,  12)
       Min divergence: -0.76E-06 at (  11,  10,  12)
       Max VN number:   0.48E-01 at (   8,   7,   9)
       Mesh    4
       Max CFL number:  0.11E+00 at (   9,   1,  10)
       Max divergence:  0.55E-06 at (   6,  11,   3)
       Min divergence: -0.50E-06 at (  11,   3,   6)
       Max VN number:   0.37E-01 at (  10,   1,   7)
       Mesh    5
       Max CFL number:  0.11E+00 at (  13,   7,  10)
       Max divergence:  0.31E-05 at (  12,  11,   8)
       Min divergence: -0.24E-05 at (  16,  10,   8)
       Max VN number:   0.48E-01 at (  16,  11,  10)
       Mesh    6
       Max CFL number:  0.11E+00 at (   3,   9,  10)
       Max divergence:  0.21E-05 at (   1,   9,   7)
       Min divergence: -0.34E-05 at (   2,  10,   8)
       Max VN number:   0.41E-01 at (   1,  11,  10)
       Mesh    7
       Max CFL number:  0.11E+00 at (   7,   7,   2)
       Max divergence:  0.56E-06 at (  11,   6,   6)
       Min divergence: -0.75E-06 at (  12,   6,   6)
       Max VN number:   0.58E-01 at (  10,   8,   5)
       Mesh    8
       Max CFL number:  0.11E+00 at (   3,   7,  10)
       Max divergence:  0.66E-06 at (   6,   6,  10)
       Min divergence: -0.15E-05 at (   7,   4,   9)
       Max VN number:   0.38E-01 at (   9,   6,  10)
 
       Time Step    1700   June 26, 2020  16:26:00
       Step Size:    0.125E+00 s, Total Time:     212.50 s
       Pressure Iterations:      1
       Maximum Velocity Error:  0.28E-16 on Mesh   2 at (  10  17   7)
       Maximum Pressure Error:  0.31E+01 on Mesh   2 at (  10   7   7)
       ScaRC: iterations    85, residual  0.67E-08, convergence rate   0.78E+00
       ---------------------------------------------------------------
       Mesh    1
       Max CFL number:  0.71E-01 at (  16,   8,   9)
       Max divergence:  0.24E-06 at (   8,  11,  11)
       Min divergence: -0.19E-06 at (   6,  11,   6)
       Max VN number:   0.23E-01 at (   6,  11,   7)
       Mesh    2
       Max CFL number:  0.12E+00 at (   9,  14,  10)
       Max divergence:  0.43E-06 at (   6,  11,   8)
       Min divergence: -0.74E-06 at (   6,  12,   8)
       Max VN number:   0.41E-01 at (  10,  15,   7)
       Mesh    3
       Max CFL number:  0.12E+00 at (  11,   8,  11)
       Max divergence:  0.49E-06 at (  12,   7,  11)
       Min divergence: -0.66E-06 at (  10,  10,  13)
       Max VN number:   0.50E-01 at (  11,   7,  11)
       Mesh    4
       Max CFL number:  0.12E+00 at (   9,   1,   8)
       Max divergence:  0.45E-06 at (  11,   6,   5)
       Min divergence: -0.50E-06 at (   2,   5,   6)
       Max VN number:   0.39E-01 at (  10,   1,   7)
       Mesh    5
       Max CFL number:  0.12E+00 at (  14,   7,   7)
       Max divergence:  0.22E-05 at (   8,  11,   6)
       Min divergence: -0.23E-05 at (  13,   9,   6)
       Max VN number:   0.41E-01 at (   8,  10,   6)
       Mesh    6
       Max CFL number:  0.13E+00 at (   3,   7,   6)
       Max divergence:  0.23E-05 at (   1,   9,   6)
       Min divergence: -0.25E-05 at (   1,  10,   6)
       Max VN number:   0.43E-01 at (   3,   7,   6)
       Mesh    7
       Max CFL number:  0.12E+00 at (  14,   8,  10)
       Max divergence:  0.39E-06 at (   7,  10,   1)
       Min divergence: -0.55E-06 at (  12,   8,   6)
       Max VN number:   0.45E-01 at (  10,   7,   7)
       Mesh    8
       Max CFL number:  0.12E+00 at (   1,   9,  10)
       Max divergence:  0.58E-06 at (   7,   1,   8)
       Min divergence: -0.76E-06 at (   6,   3,   8)
       Max VN number:   0.36E-01 at (   9,   6,  10)
 
       Time Step    1800   June 26, 2020  16:26:29
       Step Size:    0.125E+00 s, Total Time:     225.00 s
       Pressure Iterations:      1
       Maximum Velocity Error:  0.28E-16 on Mesh   2 at (   9  17   8)
       Maximum Pressure Error:  0.32E+01 on Mesh   2 at (  10   7   7)
       ScaRC: iterations    85, residual  0.71E-08, convergence rate   0.78E+00
       ---------------------------------------------------------------
       Mesh    1
       Max CFL number:  0.69E-01 at (  16,   8,   9)
       Max divergence:  0.22E-06 at (   8,  11,  11)
       Min divergence: -0.26E-06 at (   6,  12,   8)
       Max VN number:   0.22E-01 at (   6,  12,   8)
       Mesh    2
       Max CFL number:  0.13E+00 at (   9,  16,  10)
       Max divergence:  0.35E-06 at (   6,  11,  10)
       Min divergence: -0.72E-06 at (   6,  12,   7)
       Max VN number:   0.44E-01 at (  10,  16,   7)
       Mesh    3
       Max CFL number:  0.13E+00 at (  11,   9,  11)
       Max divergence:  0.43E-06 at (  11,  10,  11)
       Min divergence: -0.65E-06 at (  11,  10,  12)
       Max VN number:   0.50E-01 at (   9,   9,  10)
       Mesh    4
       Max CFL number:  0.13E+00 at (   9,   1,   9)
       Max divergence:  0.42E-06 at (   5,   3,   5)
       Min divergence: -0.62E-06 at (   5,   6,   7)
       Max VN number:   0.43E-01 at (  10,   1,   7)
       Mesh    5
       Max CFL number:  0.12E+00 at (  16,   7,   7)
       Max divergence:  0.17E-05 at (   8,  10,   6)
       Min divergence: -0.19E-05 at (   8,  11,   6)
       Max VN number:   0.66E-01 at (   8,  10,   6)
       Mesh    6
       Max CFL number:  0.12E+00 at (   6,  10,   6)
       Max divergence:  0.16E-05 at (   5,  11,   6)
       Min divergence: -0.31E-05 at (   4,  10,   6)
       Max VN number:   0.47E-01 at (   5,  10,   6)
       Mesh    7
       Max CFL number:  0.12E+00 at (  15,  10,  10)
       Max divergence:  0.41E-06 at (   8,  10,   1)
       Min divergence: -0.58E-06 at (   9,  10,   1)
       Max VN number:   0.52E-01 at (  10,   8,   6)
       Mesh    8
       Max CFL number:  0.12E+00 at (   1,  10,  10)
       Max divergence:  0.26E-06 at (  10,   1,   9)
       Min divergence: -0.58E-06 at (   9,   1,  10)
       Max VN number:   0.43E-01 at (   8,   9,   7)
 
       Time Step    1900   June 26, 2020  16:26:59
       Step Size:    0.125E+00 s, Total Time:     237.50 s
       Pressure Iterations:      1
       Maximum Velocity Error:  0.28E-16 on Mesh   2 at (  10  17  10)
       Maximum Pressure Error:  0.31E+01 on Mesh   2 at (  10   7   7)
       ScaRC: iterations    85, residual  0.77E-08, convergence rate   0.78E+00
       ---------------------------------------------------------------
       Mesh    1
       Max CFL number:  0.69E-01 at (  14,   8,   9)
       Max divergence:  0.21E-06 at (   8,  11,  11)
       Min divergence: -0.18E-06 at (   6,  10,   7)
       Max VN number:   0.24E-01 at (   6,  10,   6)
       Mesh    2
       Max CFL number:  0.13E+00 at (   9,  16,   9)
       Max divergence:  0.31E-06 at (   6,  11,   7)
       Min divergence: -0.61E-06 at (   6,  12,   7)
       Max VN number:   0.45E-01 at (  10,  16,   7)
       Mesh    3
       Max CFL number:  0.12E+00 at (  11,   8,  11)
       Max divergence:  0.44E-06 at (  10,  10,  11)
       Min divergence: -0.52E-06 at (  11,  10,  12)
       Max VN number:   0.55E-01 at (   8,   8,   8)
       Mesh    4
       Max CFL number:  0.13E+00 at (   9,   1,   9)
       Max divergence:  0.42E-06 at (   3,  11,   5)
       Min divergence: -0.54E-06 at (  11,   3,   6)
       Max VN number:   0.45E-01 at (  10,   1,   7)
       Mesh    5
       Max CFL number:  0.13E+00 at (  16,   7,   7)
       Max divergence:  0.74E-06 at (  15,  11,   7)
       Min divergence: -0.18E-05 at (  11,   8,   7)
       Max VN number:   0.48E-01 at (  12,  11,  10)
       Mesh    6
       Max CFL number:  0.13E+00 at (   1,   7,   7)
       Max divergence:  0.13E-05 at (   4,   9,   6)
       Min divergence: -0.33E-05 at (   3,   9,   6)
       Max VN number:   0.49E-01 at (   4,   9,   6)
       Mesh    7
       Max CFL number:  0.12E+00 at (  14,   7,  10)
       Max divergence:  0.27E-06 at (   7,  10,   5)
       Min divergence: -0.32E-06 at (  12,   6,   6)
       Max VN number:   0.47E-01 at (  10,   8,   5)
       Mesh    8
       Max CFL number:  0.12E+00 at (   5,   8,   9)
       Max divergence:  0.23E-06 at (   6,   1,   8)
       Min divergence: -0.45E-06 at (   7,   4,   9)
       Max VN number:   0.42E-01 at (  10,   5,   6)
 
       Time Step    2000   June 26, 2020  16:27:28
       Step Size:    0.125E+00 s, Total Time:     250.00 s
       Pressure Iterations:      1
       Maximum Velocity Error:  0.28E-16 on Mesh   2 at (   9  17   8)
       Maximum Pressure Error:  0.30E+01 on Mesh   2 at (  10   7   7)
       ScaRC: iterations    85, residual  0.76E-08, convergence rate   0.78E+00
       ---------------------------------------------------------------
       Mesh    1
       Max CFL number:  0.69E-01 at (  16,  10,   8)
       Max divergence:  0.21E-06 at (   8,  11,  11)
       Min divergence: -0.27E-06 at (   6,  12,  10)
       Max VN number:   0.25E-01 at (   6,   9,   6)
       Mesh    2
       Max CFL number:  0.13E+00 at (   9,  16,   8)
       Max divergence:  0.30E-06 at (   6,  11,  11)
       Min divergence: -0.68E-06 at (   6,  12,  11)
       Max VN number:   0.43E-01 at (  10,  16,   7)
       Mesh    3
       Max CFL number:  0.12E+00 at (   7,  10,  15)
       Max divergence:  0.35E-06 at (  10,  10,  11)
       Min divergence: -0.38E-06 at (  10,  10,  12)
       Max VN number:   0.48E-01 at (   8,   8,   8)
       Mesh    4
       Max CFL number:  0.13E+00 at (   9,   1,  10)
       Max divergence:  0.43E-06 at (   5,   4,   5)
       Min divergence: -0.52E-06 at (  11,   3,   6)
       Max VN number:   0.43E-01 at (  10,   1,   7)
       Mesh    5
       Max CFL number:  0.12E+00 at (  13,   7,   7)
       Max divergence:  0.74E-06 at (  14,   7,   7)
       Min divergence: -0.12E-05 at (  14,   8,   6)
       Max VN number:   0.47E-01 at (  10,  11,   6)
       Mesh    6
       Max CFL number:  0.12E+00 at (   6,  11,   7)
       Max divergence:  0.60E-06 at (   2,   9,   7)
       Min divergence: -0.72E-06 at (   1,   9,   6)
       Max VN number:   0.48E-01 at (   6,  11,   9)
       Mesh    7
       Max CFL number:  0.12E+00 at (   7,   9,   1)
       Max divergence:  0.38E-06 at (  11,   6,   6)
       Min divergence: -0.66E-06 at (  12,   6,   6)
       Max VN number:   0.53E-01 at (  10,   8,   7)
       Mesh    8
       Max CFL number:  0.12E+00 at (  10,   2,   6)
       Max divergence:  0.34E-06 at (   6,   5,   8)
       Min divergence: -0.51E-06 at (   7,   5,   9)
       Max VN number:   0.50E-01 at (   6,   6,   6)
 
       Time Step    2100   June 26, 2020  16:27:58
       Step Size:    0.125E+00 s, Total Time:     262.50 s
       Pressure Iterations:      1
       Maximum Velocity Error:  0.28E-16 on Mesh   2 at (  10  17   9)
       Maximum Pressure Error:  0.30E+01 on Mesh   2 at (  10   7   7)
       ScaRC: iterations    85, residual  0.77E-08, convergence rate   0.78E+00
       ---------------------------------------------------------------
       Mesh    1
       Max CFL number:  0.69E-01 at (  11,  10,   8)
       Max divergence:  0.21E-06 at (   8,  11,   7)
       Min divergence: -0.21E-06 at (   6,  12,  10)
       Max VN number:   0.22E-01 at (   6,  11,   7)
       Mesh    2
       Max CFL number:  0.13E+00 at (   9,  16,   8)
       Max divergence:  0.44E-06 at (   7,  12,   7)
       Min divergence: -0.54E-06 at (   6,  12,  10)
       Max VN number:   0.43E-01 at (   7,  11,   7)
       Mesh    3
       Max CFL number:  0.12E+00 at (  10,   9,  11)
       Max divergence:  0.33E-06 at (  10,  10,  11)
       Min divergence: -0.56E-06 at (  11,  10,  12)
       Max VN number:   0.48E-01 at (   8,   8,   8)
       Mesh    4
       Max CFL number:  0.13E+00 at (   9,   1,   8)
       Max divergence:  0.44E-06 at (  11,   3,   5)
       Min divergence: -0.51E-06 at (  11,   3,   6)
       Max VN number:   0.42E-01 at (  10,   1,   7)
       Mesh    5
       Max CFL number:  0.11E+00 at (  12,   8,  10)
       Max divergence:  0.79E-06 at (  16,   9,   7)
       Min divergence: -0.11E-05 at (  16,   9,   6)
       Max VN number:   0.45E-01 at (   9,   9,   7)
       Mesh    6
       Max CFL number:  0.12E+00 at (  10,  13,   8)
       Max divergence:  0.43E-06 at (   6,  10,   6)
       Min divergence: -0.64E-06 at (   5,  10,   6)
       Max VN number:   0.54E-01 at (   6,  11,   9)
       Mesh    7
       Max CFL number:  0.12E+00 at (  16,   8,   9)
       Max divergence:  0.30E-06 at (   7,  10,   6)
       Min divergence: -0.32E-06 at (  10,  10,   6)
       Max VN number:   0.52E-01 at (  10,   7,   7)
       Mesh    8
       Max CFL number:  0.13E+00 at (   2,   8,   8)
       Max divergence:  0.26E-06 at (  10,   2,  10)
       Min divergence: -0.30E-06 at (   5,  10,   6)
       Max VN number:   0.47E-01 at (   6,   2,   6)
 
       Time Step    2200   June 26, 2020  16:28:27
       Step Size:    0.125E+00 s, Total Time:     275.00 s
       Pressure Iterations:      1
       Maximum Velocity Error:  0.28E-16 on Mesh   3 at (  10   6  17)
       Maximum Pressure Error:  0.31E+01 on Mesh   2 at (  10   7   7)
       ScaRC: iterations    85, residual  0.70E-08, convergence rate   0.78E+00
       ---------------------------------------------------------------
       Mesh    1
       Max CFL number:  0.68E-01 at (  16,  10,   8)
       Max divergence:  0.21E-06 at (   8,  11,  11)
       Min divergence: -0.21E-06 at (   6,   7,   6)
       Max VN number:   0.22E-01 at (   6,   8,   6)
       Mesh    2
       Max CFL number:  0.13E+00 at (   9,  16,   8)
       Max divergence:  0.27E-06 at (   6,  11,   7)
       Min divergence: -0.55E-06 at (   6,  12,   7)
       Max VN number:   0.43E-01 at (  10,  16,   7)
       Mesh    3
       Max CFL number:  0.12E+00 at (  10,   8,  11)
       Max divergence:  0.28E-06 at (   9,  10,  12)
       Min divergence: -0.47E-06 at (  11,  10,  12)
       Max VN number:   0.56E-01 at (   8,   8,   8)
       Mesh    4
       Max CFL number:  0.13E+00 at (   9,   1,   8)
       Max divergence:  0.48E-06 at (  10,  11,   3)
       Min divergence: -0.45E-06 at (  11,   2,   6)
       Max VN number:   0.43E-01 at (  10,   1,   7)
       Mesh    5
       Max CFL number:  0.13E+00 at (  11,   8,   8)
       Max divergence:  0.55E-06 at (  12,   9,   7)
       Min divergence: -0.87E-06 at (  11,   9,   7)
       Max VN number:   0.40E-01 at (  12,  11,   6)
       Mesh    6
       Max CFL number:  0.13E+00 at (   2,   7,   7)
       Max divergence:  0.30E-06 at (   6,  12,   9)
       Min divergence: -0.75E-06 at (   3,   9,   6)
       Max VN number:   0.57E-01 at (   8,   7,   6)
       Mesh    7
       Max CFL number:  0.12E+00 at (  16,  10,  10)
       Max divergence:  0.36E-06 at (   7,  10,   2)
       Min divergence: -0.64E-06 at (   8,  10,   2)
       Max VN number:   0.61E-01 at (   8,   8,   7)
       Mesh    8
       Max CFL number:  0.12E+00 at (   9,   2,   7)
       Max divergence:  0.28E-06 at (   9,   5,   9)
       Min divergence: -0.48E-06 at (   6,  10,   8)
       Max VN number:   0.53E-01 at (   8,   9,   8)
 
       Time Step    2300   June 26, 2020  16:28:57
       Step Size:    0.125E+00 s, Total Time:     287.50 s
       Pressure Iterations:      1
       Maximum Velocity Error:  0.28E-16 on Mesh   2 at (   9  17   8)
       Maximum Pressure Error:  0.30E+01 on Mesh   2 at (  10   7   7)
       ScaRC: iterations    85, residual  0.75E-08, convergence rate   0.78E+00
       ---------------------------------------------------------------
       Mesh    1
       Max CFL number:  0.68E-01 at (  13,   9,   8)
       Max divergence:  0.21E-06 at (   8,  11,  11)
       Min divergence: -0.16E-06 at (   6,  10,   6)
       Max VN number:   0.21E-01 at (   6,   7,   6)
       Mesh    2
       Max CFL number:  0.12E+00 at (   9,  16,   8)
       Max divergence:  0.36E-06 at (   7,  12,  11)
       Min divergence: -0.54E-06 at (   6,  12,   9)
       Max VN number:   0.42E-01 at (  10,  16,   7)
       Mesh    3
       Max CFL number:  0.11E+00 at (   7,  10,  16)
       Max divergence:  0.32E-06 at (  11,  10,  11)
       Min divergence: -0.48E-06 at (  11,  10,  12)
       Max VN number:   0.47E-01 at (   8,   8,   8)
       Mesh    4
       Max CFL number:  0.13E+00 at (   9,   1,  10)
       Max divergence:  0.47E-06 at (   5,   5,   5)
       Min divergence: -0.43E-06 at (   3,   5,   6)
       Max VN number:   0.43E-01 at (  10,   1,   7)
       Mesh    5
       Max CFL number:  0.12E+00 at (  14,   7,   8)
       Max divergence:  0.30E-06 at (  16,   8,   7)
       Min divergence: -0.49E-06 at (  16,   8,   6)
       Max VN number:   0.42E-01 at (  10,   8,   7)
       Mesh    6
       Max CFL number:  0.13E+00 at (   6,  10,   6)
       Max divergence:  0.38E-06 at (   6,  11,   8)
       Min divergence: -0.73E-06 at (   5,  11,   6)
       Max VN number:   0.53E-01 at (  10,  11,  10)
       Mesh    7
       Max CFL number:  0.11E+00 at (  15,   9,  10)
       Max divergence:  0.27E-06 at (  11,   6,   6)
       Min divergence: -0.55E-06 at (  12,   6,   6)
       Max VN number:   0.52E-01 at (   8,   8,   8)
       Mesh    8
       Max CFL number:  0.12E+00 at (   5,  10,   7)
       Max divergence:  0.27E-06 at (   8,  10,   7)
       Min divergence: -0.32E-06 at (   4,   6,   6)
       Max VN number:   0.40E-01 at (   5,  10,   7)
 
       Time Step    2400   June 26, 2020  16:29:26
       Step Size:    0.125E+00 s, Total Time:     300.00 s
       Pressure Iterations:      1
       Maximum Velocity Error:  0.28E-16 on Mesh   2 at (   8  17   8)
       Maximum Pressure Error:  0.32E+01 on Mesh   2 at (  10   7   7)
       ScaRC: iterations    85, residual  0.83E-08, convergence rate   0.78E+00
       ---------------------------------------------------------------
       Mesh    1
       Max CFL number:  0.68E-01 at (   8,   8,   9)
       Max divergence:  0.21E-06 at (   8,  11,  11)
       Min divergence: -0.12E-06 at (   6,  11,  11)
       Max VN number:   0.25E-01 at (   6,  10,   6)
       Mesh    2
       Max CFL number:  0.12E+00 at (   9,  16,   9)
       Max divergence:  0.34E-06 at (   7,  12,  11)
       Min divergence: -0.60E-06 at (   6,  12,   8)
       Max VN number:   0.42E-01 at (   7,  11,   7)
       Mesh    3
       Max CFL number:  0.12E+00 at (  11,  10,  11)
       Max divergence:  0.26E-06 at (  11,   6,  12)
       Min divergence: -0.40E-06 at (  16,  12,   6)
       Max VN number:   0.41E-01 at (   9,  10,  11)
       Mesh    4
       Max CFL number:  0.12E+00 at (   9,   1,   9)
       Max divergence:  0.46E-06 at (   5,   5,   5)
       Min divergence: -0.55E-06 at (   5,   6,  11)
       Max VN number:   0.42E-01 at (  10,   1,   7)
       Mesh    5
       Max CFL number:  0.12E+00 at (  15,   7,   8)
       Max divergence:  0.24E-06 at (  10,   7,   7)
       Min divergence: -0.50E-06 at (   9,   7,   6)
       Max VN number:   0.58E-01 at (   8,  11,   6)
       Mesh    6
       Max CFL number:  0.12E+00 at (   3,   9,   9)
       Max divergence:  0.24E-06 at (   6,  11,   6)
       Min divergence: -0.45E-06 at (   1,  11,   8)
       Max VN number:   0.60E-01 at (   4,  11,  10)
       Mesh    7
       Max CFL number:  0.12E+00 at (   7,  10,   1)
       Max divergence:  0.28E-06 at (   7,  10,   3)
       Min divergence: -0.42E-06 at (  12,   8,   6)
       Max VN number:   0.53E-01 at (   8,   8,   8)
       Mesh    8
       Max CFL number:  0.12E+00 at (  10,   4,   6)
       Max divergence:  0.26E-06 at (  10,   4,   9)
       Min divergence: -0.32E-06 at (   2,   6,   9)
       Max VN number:   0.42E-01 at (  10,   2,   6)
 


 CONTROL Activation Times

   1  Delta p                                                     F No Activation


 Time Stepping Wall Clock Time (s):      701.874
 Total Elapsed Wall Clock Time (s):      702.413

STOP: FDS completed successfully (CHID: zone_shape_2_uscarc)
