
 Fire Dynamics Simulator

 Current Date     : June 26, 2020  16:19:16
 Revision         : -AMG
 Revision Date    : Fri Jun 26 15:19:14 2020 +0200
 Compiler         : Intel ifort 19.0.5.281
 Compilation Date : Jun 26, 2020 15:25:32

 MPI Enabled;    Number of MPI Processes:       1
 OpenMP Enabled; Number of OpenMP Threads:      4

 MPI version: 3.1
 MPI library version: Intel(R) MPI Library 2018 Update 1 for Linux* OS


 Job TITLE        : Test of opening pressure ZONEs
 Job ID string    : zone_break_slow


 Grid Dimensions, Mesh     1

   Cells in the X Direction            50
   Cells in the Y Direction            50
   Cells in the Z Direction            12
   Number of Grid Cells             30000


 Physical Dimensions, Mesh     1

   Length (m)                      10.000
   Width  (m)                      10.000
   Height (m)                       2.400
   Initial Time Step (s)            0.204

Total Number of Grid Cells         30000


 Miscellaneous Parameters

   Simulation Start Time (s)          0.0
   Simulation End Time (s)           30.0
   LES Calculation
   Eddy Viscosity:           Deardorff Model (C_DEARDORFF = 0.10)
   Near-wall Eddy Viscosity: Smagorinsky with Van Driest damping (C_SMAGORINSKY = 0.20)
   Turbulent Prandtl Number:         0.50
   Turbulent Schmidt Number:         0.50
   Ambient Temperature (C):         20.00


 Mass Fraction Transformation Matrix to Convert Species Mixtures (Columns) to Primitive Species (Rows)

                         AIR     
   NITROGEN              0.762470
   OXYGEN                0.230997
   CARBON DIOXIDE        0.000591
   WATER VAPOR           0.005941


 Primitive Species Information

   NITROGEN
   Gas Species
   Molecular Weight (g/mol)            28.01340
   Ambient Density (kg/m^3)            1.165
   Enthalpy of Formation (J/kg)        0.00E+00

   OXYGEN
   Gas Species
   Molecular Weight (g/mol)            31.99880
   Ambient Density (kg/m^3)            1.330
   Enthalpy of Formation (J/kg)        0.00E+00

   CARBON DIOXIDE
   Gas Species
   Molecular Weight (g/mol)            44.00950
   Ambient Density (kg/m^3)            1.830
   Enthalpy of Formation (J/kg)       -8.94E+06

   WATER VAPOR
   Gas Species
   Molecular Weight (g/mol)            18.01528
   Ambient Density (kg/m^3)            0.749
   Enthalpy of Formation (J/kg)       -1.34E+07


 Tracked (Lumped) Species Information

   AIR
   Molecular Weight (g/mol)            28.75199
   Ambient Density (kg/m^3)            1.195
   Initial Mass Fraction               1.000
   Enthalpy of Formation (J/kg)     -8.50E+04

   Sub Species                    Mass Fraction     Mole Fraction
   NITROGEN                       7.624701E-01      7.825730E-01
   OXYGEN                         2.309974E-01      2.075589E-01
   CARBON DIOXIDE                 5.914651E-04      3.864120E-04
   WATER VAPOR                    5.940984E-03      9.481679E-03
 
     Viscosity (kg/m/s) Ambient,  293 K:  1.80E-05
                                  500 K:  2.61E-05
                                 1000 K:  4.13E-05
                                 1500 K:  5.37E-05
   Therm. Cond. (W/m/K) Ambient,  293 K:  2.56E-02
                                  500 K:  3.81E-02
                                 1000 K:  6.69E-02
                                 1500 K:  9.25E-02
        Enthalpy (J/kg) Ambient,  293 K: -9.01E+04
                                  500 K:  1.22E+05
                                 1000 K:  6.72E+05
                                 1500 K:  1.27E+06
    Spec. Heat (J/kg/K) Ambient,  293 K:  1.02E+03
                                  500 K:  1.04E+03
                                 1000 K:  1.16E+03
                                 1500 K:  1.23E+03
   Diff. Coeff. (m^2/s) Ambient,  293 K:  1.99E-05
                                  500 K:  4.96E-05
                                 1000 K:  1.58E-04
                                 1500 K:  3.09E-04


 Material Information


 Surface Conditions

   0 INERT (DEFAULT)

   1 BLOW
     AIR Mass Flux (kg/s/m2)   1.00E-01

   2 OPEN
     Passive Vent to Atmosphere

   3 MIRROR
     Symmetry Plane

   4 INTERPOLATED

   5 PERIODIC

   6 HVAC

   7 MASSLESS TRACER

   8 DROPLET

   9 EVACUATION_OUTFLOW
     Normal Velocity (m/s)         0.000

  10 MASSLESS TARGET

  11 PERIODIC WIND


 Device Coordinates

     1 Coords:      1.000000      1.000000      1.000000, Make: null, ID: pres_1, Quantity: PRESSURE
     2 Coords:      7.500000      5.000000      1.000000, Make: null, ID: pres_2, Quantity: PRESSURE
     3 Coords:      2.500000      7.500000      1.000000, Make: null, ID: pres_3, Quantity: PRESSURE
     4 Coords:      0.002000      0.002000      0.002000, Make: null, ID: door 1, Quantity: TIME
     5 Coords:      0.002000      0.002000      0.002000, Make: null, ID: door 2, Quantity: TIME
     6 Coords:      0.002000      0.002000      0.002000, Make: null, ID: door 3, Quantity: TIME


 Slice File Information, Mesh     1

   Sampling Interval (s)             0.030

   1 Nodes:   0  50   0  50   5   5, Quantity: TEMPERATURE
   2 Nodes:   0  50   0  50   5   5, Quantity: U-VELOCITY
   3 Nodes:   0  50   0  50   5   5, Quantity: V-VELOCITY
   4 Nodes:   0  50   0  50   5   5, Quantity: W-VELOCITY
   5 Nodes:   0  50   0  50   5   5, Quantity: PRESSURE
   6 Nodes:   0  50   0  50   5   5, Quantity: DENSITY


 Radiation Model Information

   Number of control angles  104
   Time step increment         3
   Angle increment             5
   Theta band N_phi   Solid angle
     1:        4     0.120
     2:       12     0.114
     3:       16     0.127
     4:       20     0.120
     5:       20     0.120
     6:       16     0.127
     7:       12     0.114
     8:        4     0.120
   Using gray gas absorption.
   Mean beam length  0.100 m
 
 

 Run Time Diagnostics

       Time Step       1   June 26, 2020  16:19:17
       Step Size:    0.204E+00 s, Total Time:       0.20 s
       Pressure Iterations:      1
       Maximum Velocity Error:  0.25E-02 on Mesh   1 at (   0  27   9)
       Maximum Pressure Error:  0.78E-04 on Mesh   1 at (  50   1  12)
       ---------------------------------------------------------------
       Max CFL number:  0.86E-01 at (  14,  12,   1)
       Max divergence:  0.12E-05 at (  44,  38,  11)
       Min divergence: -0.14E-02 at (   7,   5,  11)
       Max VN number:   0.15E-01 at (   7,  40,   6)
 
       Time Step       2   June 26, 2020  16:19:17
       Step Size:    0.204E+00 s, Total Time:       0.41 s
       Pressure Iterations:      1
       Maximum Velocity Error:  0.15E-02 on Mesh   1 at (   0  13   1)
       Maximum Pressure Error:  0.33E-04 on Mesh   1 at (  14   1  12)
       ---------------------------------------------------------------
       Max CFL number:  0.86E-01 at (  15,  11,   1)
       Max divergence:  0.12E-05 at (  44,  38,  11)
       Min divergence: -0.14E-02 at (   7,   5,  11)
       Max VN number:   0.17E-01 at (  11,  15,   1)
       Radiation Loss to Boundaries:        -0.005 kW
 
       Time Step       3   June 26, 2020  16:19:17
       Step Size:    0.204E+00 s, Total Time:       0.61 s
       Pressure Iterations:      1
       Maximum Velocity Error:  0.23E-02 on Mesh   1 at (   0  25  12)
       Maximum Pressure Error:  0.68E-04 on Mesh   1 at (  15   1   1)
       ---------------------------------------------------------------
       Max CFL number:  0.86E-01 at (  15,  11,   1)
       Max divergence:  0.12E-05 at (  44,  38,  11)
       Min divergence: -0.14E-02 at (   7,   5,  11)
       Max VN number:   0.17E-01 at (  11,  15,   1)
       Radiation Loss to Boundaries:        -0.010 kW
 
       Time Step       4   June 26, 2020  16:19:17
       Step Size:    0.204E+00 s, Total Time:       0.82 s
       Pressure Iterations:      1
       Maximum Velocity Error:  0.31E-02 on Mesh   1 at (   0   1   1)
       Maximum Pressure Error:  0.13E-03 on Mesh   1 at (   1   1  12)
       ---------------------------------------------------------------
       Max CFL number:  0.86E-01 at (  15,  11,   1)
       Max divergence:  0.12E-05 at (   7,  33,   5)
       Min divergence: -0.14E-02 at (   1,   1,  12)
       Max VN number:   0.16E-01 at (  11,  15,   1)
       Radiation Loss to Boundaries:        -0.014 kW
 
       Time Step       5   June 26, 2020  16:19:17
       Step Size:    0.204E+00 s, Total Time:       1.02 s
       Pressure Iterations:      1
       Maximum Velocity Error:  0.43E-02 on Mesh   1 at (   0   1   1)
       Maximum Pressure Error:  0.24E-03 on Mesh   1 at (   1   1  12)
       ---------------------------------------------------------------
       Max CFL number:  0.86E-01 at (  15,  11,   1)
       Max divergence:  0.12E-05 at (   7,  33,   5)
       Min divergence: -0.14E-02 at (  25,   1,  12)
       Max VN number:   0.16E-01 at (  11,  15,   1)
       Radiation Loss to Boundaries:        -0.019 kW
 
       Time Step       6   June 26, 2020  16:19:17
       Step Size:    0.204E+00 s, Total Time:       1.22 s
       Pressure Iterations:      1
       Maximum Velocity Error:  0.53E-02 on Mesh   1 at (   0  25   1)
       Maximum Pressure Error:  0.39E-03 on Mesh   1 at (   1   1   1)
       ---------------------------------------------------------------
       Max CFL number:  0.86E-01 at (  14,  13,   1)
       Max divergence:  0.12E-05 at (   7,  33,   5)
       Min divergence: -0.14E-02 at (  25,   1,  12)
       Max VN number:   0.16E-01 at (  11,  15,   1)
       Radiation Loss to Boundaries:        -0.024 kW
 
       Time Step       7   June 26, 2020  16:19:17
       Step Size:    0.204E+00 s, Total Time:       1.43 s
       Pressure Iterations:      1
       Maximum Velocity Error:  0.59E-02 on Mesh   1 at (   0  25   1)
       Maximum Pressure Error:  0.62E-03 on Mesh   1 at (   1   1   1)
       ---------------------------------------------------------------
       Max CFL number:  0.85E-01 at (  14,  13,   1)
       Max divergence:  0.12E-05 at (   7,  33,   5)
       Min divergence: -0.14E-02 at (  25,   1,  12)
       Max VN number:   0.15E-01 at (  11,  15,   1)
       Radiation Loss to Boundaries:        -0.028 kW
 
       Time Step       8   June 26, 2020  16:19:17
       Step Size:    0.204E+00 s, Total Time:       1.63 s
       Pressure Iterations:      1
       Maximum Velocity Error:  0.61E-02 on Mesh   1 at (   0  25   1)
       Maximum Pressure Error:  0.89E-03 on Mesh   1 at (   1   1   1)
       ---------------------------------------------------------------
       Max CFL number:  0.85E-01 at (  14,  13,   1)
       Max divergence:  0.12E-05 at (   7,  33,   5)
       Min divergence: -0.14E-02 at (   1,  25,   1)
       Max VN number:   0.15E-01 at (  11,  15,   1)
       Radiation Loss to Boundaries:        -0.033 kW
 
       Time Step       9   June 26, 2020  16:19:17
       Step Size:    0.204E+00 s, Total Time:       1.84 s
       Pressure Iterations:      1
       Maximum Velocity Error:  0.59E-02 on Mesh   1 at (   0  25   1)
       Maximum Pressure Error:  0.12E-02 on Mesh   1 at (   1   1   1)
       ---------------------------------------------------------------
       Max CFL number:  0.85E-01 at (  13,  13,   1)
       Max divergence:  0.12E-05 at (   7,  33,   5)
       Min divergence: -0.14E-02 at (   1,  25,   1)
       Max VN number:   0.15E-01 at (  11,  15,   1)
       Radiation Loss to Boundaries:        -0.038 kW
 
       Time Step      10   June 26, 2020  16:19:17
       Step Size:    0.204E+00 s, Total Time:       2.04 s
       Pressure Iterations:      1
       Maximum Velocity Error:  0.54E-02 on Mesh   1 at (   0  25   1)
       Maximum Pressure Error:  0.15E-02 on Mesh   1 at (   1   1   1)
       ---------------------------------------------------------------
       Max CFL number:  0.85E-01 at (  13,  14,   1)
       Max divergence:  0.12E-05 at (   7,  33,   5)
       Min divergence: -0.14E-02 at (   1,  25,   1)
       Max VN number:   0.14E-01 at (  11,  15,   1)
       Radiation Loss to Boundaries:        -0.041 kW
 
       Time Step      20   June 26, 2020  16:19:18
       Step Size:    0.204E+00 s, Total Time:       4.08 s
       Pressure Iterations:      1
       Maximum Velocity Error:  0.36E-02 on Mesh   1 at (   0   1   1)
       Maximum Pressure Error:  0.38E-02 on Mesh   1 at (   1   1   1)
       ---------------------------------------------------------------
       Max CFL number:  0.85E-01 at (  12,  13,   1)
       Max divergence:  0.12E-05 at (   7,  33,   5)
       Min divergence: -0.14E-02 at (   1,  25,   1)
       Max VN number:   0.15E-01 at (  11,  11,   2)
       Radiation Loss to Boundaries:        -0.083 kW
 
       Time Step      30   June 26, 2020  16:19:19
       Step Size:    0.204E+00 s, Total Time:       6.12 s
       Pressure Iterations:      1
       Maximum Velocity Error:  0.30E-02 on Mesh   1 at (   0   1  12)
       Maximum Pressure Error:  0.67E-02 on Mesh   1 at (   1   1   1)
       ---------------------------------------------------------------
       Max CFL number:  0.85E-01 at (  12,  13,   1)
       Max divergence:  0.12E-05 at (  40,  25,   5)
       Min divergence: -0.14E-02 at (   1,  25,   1)
       Max VN number:   0.14E-01 at (  14,  12,   2)
       Radiation Loss to Boundaries:        -0.123 kW
 
       Time Step      40   June 26, 2020  16:19:20
       Step Size:    0.204E+00 s, Total Time:       8.16 s
       Pressure Iterations:      1
       Maximum Velocity Error:  0.33E-02 on Mesh   1 at (   0  25  12)
       Maximum Pressure Error:  0.93E-02 on Mesh   1 at (   1   1   1)
       ---------------------------------------------------------------
       Max CFL number:  0.84E-01 at (  13,  14,   1)
       Max divergence:  0.12E-05 at (  40,  25,   5)
       Min divergence: -0.15E-02 at (   1,  25,   1)
       Max VN number:   0.13E-01 at (  35,  42,  11)
       Radiation Loss to Boundaries:        -0.160 kW
 
       Time Step      50   June 26, 2020  16:19:21
       Step Size:    0.204E+00 s, Total Time:      10.21 s
       Pressure Iterations:      1
       Maximum Velocity Error:  0.33E-01 on Mesh   1 at (  26  13  11)
       Maximum Pressure Error:  0.42E+00 on Mesh   1 at (  25  25  11)
       ---------------------------------------------------------------
       Max CFL number:  0.84E-01 at (  12,  13,   1)
       Max divergence:  0.86E-02 at (  25,  14,   7)
       Min divergence: -0.52E-02 at (  40,  34,  11)
       Max VN number:   0.17E-01 at (  15,  11,   1)
       Radiation Loss to Boundaries:        -0.204 kW
 
       Time Step      60   June 26, 2020  16:19:22
       Step Size:    0.204E+00 s, Total Time:      12.25 s
       Pressure Iterations:      1
       Maximum Velocity Error:  0.19E-01 on Mesh   1 at (  26  25  12)
       Maximum Pressure Error:  0.27E-01 on Mesh   1 at (  50  50  12)
       ---------------------------------------------------------------
       Max CFL number:  0.32E+00 at (  26,  15,   1)
       Max divergence:  0.21E-02 at (  26,  13,   3)
       Min divergence: -0.19E-02 at (  28,  13,   4)
       Max VN number:   0.15E+00 at (  25,  15,   1)
       Radiation Loss to Boundaries:        -0.242 kW
 
       Time Step      70   June 26, 2020  16:19:23
       Step Size:    0.204E+00 s, Total Time:      14.29 s
       Pressure Iterations:      1
       Maximum Velocity Error:  0.11E-01 on Mesh   1 at (   0  25   1)
       Maximum Pressure Error:  0.25E-01 on Mesh   1 at (  50  50   1)
       ---------------------------------------------------------------
       Max CFL number:  0.23E+00 at (  28,  13,   1)
       Max divergence:  0.10E-05 at (  14,  30,   8)
       Min divergence: -0.74E-03 at (  26,  11,  10)
       Max VN number:   0.93E-01 at (  25,  15,   2)
       Radiation Loss to Boundaries:        -0.273 kW
 
       Time Step      80   June 26, 2020  16:19:24
       Step Size:    0.204E+00 s, Total Time:      16.33 s
       Pressure Iterations:      1
       Maximum Velocity Error:  0.32E-01 on Mesh   1 at (   0  27  12)
       Maximum Pressure Error:  0.14E-01 on Mesh   1 at (  28  50   1)
       ---------------------------------------------------------------
       Max CFL number:  0.30E+00 at (  26,  11,  10)
       Max divergence:  0.40E-03 at (  24,  15,  11)
       Min divergence: -0.24E-02 at (  24,  36,   1)
       Max VN number:   0.15E+00 at (  25,  11,  10)
       Radiation Loss to Boundaries:        -0.314 kW
 
       Time Step      90   June 26, 2020  16:19:25
       Step Size:    0.204E+00 s, Total Time:      18.37 s
       Pressure Iterations:      1
       Maximum Velocity Error:  0.16E-01 on Mesh   1 at (  26  27  12)
       Maximum Pressure Error:  0.15E-01 on Mesh   1 at (  26  35   1)
       ---------------------------------------------------------------
       Max CFL number:  0.22E+00 at (  29,  13,   1)
       Max divergence: -0.18E-03 at (  27,  38,   5)
       Min divergence: -0.71E-03 at (  26,  36,  10)
       Max VN number:   0.11E+00 at (  23,  11,  10)
       Radiation Loss to Boundaries:        -0.353 kW
 
       Time Step     100   June 26, 2020  16:19:26
       Step Size:    0.204E+00 s, Total Time:      20.41 s
       Pressure Iterations:      1
       Maximum Velocity Error:  0.72E-01 on Mesh   1 at (   0  33  12)
       Maximum Pressure Error:  0.12E+00 on Mesh   1 at (  26  16   1)
       ---------------------------------------------------------------
       Max CFL number:  0.21E+00 at (  26,  37,   1)
       Max divergence:  0.11E-01 at (   1,  35,   1)
       Min divergence:  0.47E-02 at (   1,  31,  10)
       Max VN number:   0.98E-01 at (  26,  36,  10)
       Radiation Loss to Boundaries:        -0.294 kW
 
       Time Step     147   June 26, 2020  16:19:31
       Step Size:    0.198E+00 s, Total Time:      30.00 s
       Pressure Iterations:      1
       Maximum Velocity Error:  0.10E-01 on Mesh   1 at (   0  50   2)
       Maximum Pressure Error:  0.70E-02 on Mesh   1 at (   4  13   1)
       ---------------------------------------------------------------
       Max CFL number:  0.24E+00 at (  24,  38,   9)
       Max divergence:  0.67E-04 at (  12,  12,   2)
       Min divergence: -0.52E-04 at (  20,  13,  10)
       Max VN number:   0.84E-01 at (  29,  13,  10)
       Radiation Loss to Boundaries:         0.011 kW
 


 DEVICE Activation Times

   4  door 1                                                          10.0 s
   5  door 2                                                          15.1 s
   6  door 3                                                          20.0 s


 Time Stepping Wall Clock Time (s):       14.457
 Total Elapsed Wall Clock Time (s):       17.480

STOP: FDS completed successfully (CHID: zone_break_slow)
