
 Fire Dynamics Simulator

 Current Date     : June 26, 2020  16:19:17
 Revision         : -AMG
 Revision Date    : Fri Jun 26 15:19:14 2020 +0200
 Compiler         : Intel ifort 19.0.5.281
 Compilation Date : Jun 26, 2020 15:25:32

 MPI Enabled;    Number of MPI Processes:       2
 OpenMP Enabled; Number of OpenMP Threads:      4

 MPI version: 3.1
 MPI library version: Intel(R) MPI Library 2018 Update 1 for Linux* OS


 Job TITLE        : Test of opening pressure ZONEs
 Job ID string    : zone_shape


 Grid Dimensions, Mesh     1

   Cells in the X Direction            25
   Cells in the Y Direction            50
   Cells in the Z Direction            12
   Number of Grid Cells             15000


 Physical Dimensions, Mesh     1

   Length (m)                       5.000
   Width  (m)                      10.000
   Height (m)                       2.400
   Initial Time Step (s)            0.050

 Grid Dimensions, Mesh     2

   Cells in the X Direction            25
   Cells in the Y Direction            50
   Cells in the Z Direction            12
   Number of Grid Cells             15000


 Physical Dimensions, Mesh     2

   Length (m)                       5.000
   Width  (m)                      10.000
   Height (m)                       2.400
   Initial Time Step (s)            0.050

Total Number of Grid Cells         30000


 Miscellaneous Parameters

   Simulation Start Time (s)          0.0
   Simulation End Time (s)           25.0
   LES Calculation
   Eddy Viscosity:           Deardorff Model (C_DEARDORFF = 0.10)
   Near-wall Eddy Viscosity: Smagorinsky with Van Driest damping (C_SMAGORINSKY = 0.20)
   Turbulent Prandtl Number:         0.50
   Turbulent Schmidt Number:         0.50
   Ambient Temperature (C):         20.00


 Mass Fraction Transformation Matrix to Convert Species Mixtures (Columns) to Primitive Species (Rows)

                         AIR     
   NITROGEN              0.762470
   OXYGEN                0.230997
   CARBON DIOXIDE        0.000591
   WATER VAPOR           0.005941


 Primitive Species Information

   NITROGEN
   Gas Species
   Molecular Weight (g/mol)            28.01340
   Ambient Density (kg/m^3)            1.165
   Enthalpy of Formation (J/kg)        0.00E+00

   OXYGEN
   Gas Species
   Molecular Weight (g/mol)            31.99880
   Ambient Density (kg/m^3)            1.330
   Enthalpy of Formation (J/kg)        0.00E+00

   CARBON DIOXIDE
   Gas Species
   Molecular Weight (g/mol)            44.00950
   Ambient Density (kg/m^3)            1.830
   Enthalpy of Formation (J/kg)       -8.94E+06

   WATER VAPOR
   Gas Species
   Molecular Weight (g/mol)            18.01528
   Ambient Density (kg/m^3)            0.749
   Enthalpy of Formation (J/kg)       -1.34E+07


 Tracked (Lumped) Species Information

   AIR
   Molecular Weight (g/mol)            28.75199
   Ambient Density (kg/m^3)            1.195
   Initial Mass Fraction               1.000
   Enthalpy of Formation (J/kg)     -8.50E+04

   Sub Species                    Mass Fraction     Mole Fraction
   NITROGEN                       7.624701E-01      7.825730E-01
   OXYGEN                         2.309974E-01      2.075589E-01
   CARBON DIOXIDE                 5.914651E-04      3.864120E-04
   WATER VAPOR                    5.940984E-03      9.481679E-03
 
     Viscosity (kg/m/s) Ambient,  293 K:  1.80E-05
                                  500 K:  2.61E-05
                                 1000 K:  4.13E-05
                                 1500 K:  5.37E-05
   Therm. Cond. (W/m/K) Ambient,  293 K:  2.55E-02
                                  500 K:  3.70E-02
                                 1000 K:  5.85E-02
                                 1500 K:  7.62E-02
        Enthalpy (J/kg) Ambient,  293 K:  2.97E+05
                                  500 K:  5.06E+05
                                 1000 K:  1.01E+06
                                 1500 K:  1.52E+06
    Spec. Heat (J/kg/K) Ambient,  293 K:  1.01E+03
                                  500 K:  1.01E+03
                                 1000 K:  1.01E+03
                                 1500 K:  1.01E+03
   Diff. Coeff. (m^2/s) Ambient,  293 K:  1.99E-05
                                  500 K:  4.96E-05
                                 1000 K:  1.58E-04
                                 1500 K:  3.09E-04


 Material Information


 Surface Conditions

   0 INERT

   1 WALL (DEFAULT)

   2 BLOW
     AIR Mass Flux (kg/s/m2)   1.00E+00

   3 OPEN
     Passive Vent to Atmosphere

   4 MIRROR
     Symmetry Plane

   5 INTERPOLATED

   6 PERIODIC

   7 HVAC

   8 MASSLESS TRACER

   9 DROPLET

  10 EVACUATION_OUTFLOW
     Normal Velocity (m/s)         0.000

  11 MASSLESS TARGET

  12 PERIODIC WIND


 Device Coordinates

     1 Coords:      1.000000      1.000000      1.000000, Make: null, ID: pres_1, Quantity: PRESSURE
     2 Coords:      7.500000      5.000000      1.000000, Make: null, ID: pres_2, Quantity: PRESSURE
     3 Coords:      2.500000      7.500000      1.000000, Make: null, ID: pres_3, Quantity: PRESSURE
     4 Coords:      0.002000      0.002000      0.002000, Make: null, ID: door 2, Quantity: TIME
     5 Coords:      0.002000      0.002000      0.002000, Make: null, ID: door 3, Quantity: TIME


 Slice File Information, Mesh     1

   Sampling Interval (s)             0.025

   1 Nodes:   0  25   0  50   5   5, Quantity: TEMPERATURE
   2 Nodes:   0  25   0  50   5   5, Quantity: U-VELOCITY
   3 Nodes:   0  25   0  50   5   5, Quantity: V-VELOCITY
   4 Nodes:   0  25   0  50   5   5, Quantity: W-VELOCITY
   5 Nodes:   0  25   0  50   5   5, Quantity: PRESSURE


 Radiation Model Information

   Number of control angles  104
   Time step increment         3
   Angle increment             5
   Theta band N_phi   Solid angle
     1:        4     0.120
     2:       12     0.114
     3:       16     0.127
     4:       20     0.120
     5:       20     0.120
     6:       16     0.127
     7:       12     0.114
     8:        4     0.120
   Using gray gas absorption.
   Mean beam length  0.100 m
 
 

 Run Time Diagnostics

       Time Step       1   June 26, 2020  16:19:17
       Step Size:    0.500E-01 s, Total Time:       0.05 s
       Pressure Iterations:      1
       Maximum Velocity Error:  0.36E-01 on Mesh   1 at (   0  13   1)
       Maximum Pressure Error:  0.12E-03 on Mesh   1 at (  12  25  12)
       ---------------------------------------------------------------
       Mesh    1
       Max CFL number:  0.21E+00 at (  11,  11,   1)
       Max divergence:  0.17E-14 at (  13,  28,   1)
       Min divergence: -0.47E-02 at (  10,  13,   1)
       Max VN number:   0.17E-02 at (  17,  39,  11)
       Mesh    2
       Max CFL number:  0.97E-02 at (   1,   6,   2)
       Max divergence: -0.47E-02 at (   3,  49,  11)
       Min divergence: -0.47E-02 at (   1,  11,   1)
       Max VN number:   0.19E-02 at (  16,  39,  11)
 
       Time Step       2   June 26, 2020  16:19:17
       Step Size:    0.500E-01 s, Total Time:       0.10 s
       Pressure Iterations:      1
       Maximum Velocity Error:  0.29E-01 on Mesh   1 at (   0  13   1)
       Maximum Pressure Error:  0.25E-02 on Mesh   2 at (  25  50  12)
       ---------------------------------------------------------------
       Mesh    1
       Max CFL number:  0.21E+00 at (  11,  13,   1)
       Max divergence:  0.70E-15 at (  25,  30,   1)
       Min divergence: -0.47E-02 at (  10,  15,   1)
       Max VN number:   0.54E-01 at (  15,  11,   1)
       Radiation Loss to Boundaries:        -0.005 kW
       Mesh    2
       Max CFL number:  0.11E-01 at (   1,  25,   3)
       Max divergence: -0.47E-02 at (   4,  49,  11)
       Min divergence: -0.47E-02 at (  25,   1,  12)
       Max VN number:   0.19E-02 at (  16,  39,  11)
       Radiation Loss to Boundaries:        -0.008 kW
 
       Time Step       3   June 26, 2020  16:19:17
       Step Size:    0.500E-01 s, Total Time:       0.15 s
       Pressure Iterations:      1
       Maximum Velocity Error:  0.25E-01 on Mesh   2 at (   0  25   7)
       Maximum Pressure Error:  0.66E-02 on Mesh   2 at (  25  50  12)
       ---------------------------------------------------------------
       Mesh    1
       Max CFL number:  0.21E+00 at (  13,  13,   1)
       Max divergence:  0.98E-15 at (  25,  31,   6)
       Min divergence: -0.47E-02 at (  16,  11,   1)
       Max VN number:   0.53E-01 at (  15,  11,   1)
       Radiation Loss to Boundaries:        -0.009 kW
       Mesh    2
       Max CFL number:  0.16E-01 at (   1,  25,   3)
       Max divergence: -0.47E-02 at (   4,  48,  11)
       Min divergence: -0.47E-02 at (  25,   1,  12)
       Max VN number:   0.19E-02 at (   2,  25,   2)
       Radiation Loss to Boundaries:        -0.017 kW
 
       Time Step       4   June 26, 2020  16:19:17
       Step Size:    0.500E-01 s, Total Time:       0.20 s
       Pressure Iterations:      1
       Maximum Velocity Error:  0.24E-01 on Mesh   1 at (  26  25  12)
       Maximum Pressure Error:  0.11E-01 on Mesh   2 at (  25  50  12)
       ---------------------------------------------------------------
       Mesh    1
       Max CFL number:  0.21E+00 at (  13,  13,   1)
       Max divergence:  0.13E-14 at (  25,  43,   3)
       Min divergence: -0.47E-02 at (  16,  11,   1)
       Max VN number:   0.52E-01 at (  15,  11,   1)
       Radiation Loss to Boundaries:        -0.013 kW
       Mesh    2
       Max CFL number:  0.20E-01 at (   1,  25,   3)
       Max divergence: -0.47E-02 at (  11,  39,   6)
       Min divergence: -0.47E-02 at (  25,   1,  12)
       Max VN number:   0.26E-02 at (   2,  25,   2)
       Radiation Loss to Boundaries:        -0.023 kW
 
       Time Step       5   June 26, 2020  16:19:17
       Step Size:    0.500E-01 s, Total Time:       0.25 s
       Pressure Iterations:      1
       Maximum Velocity Error:  0.20E-01 on Mesh   1 at (  26  25  12)
       Maximum Pressure Error:  0.15E-01 on Mesh   2 at (  25  50  12)
       ---------------------------------------------------------------
       Mesh    1
       Max CFL number:  0.21E+00 at (  13,  13,   1)
       Max divergence:  0.15E-14 at (  25,  47,  10)
       Min divergence: -0.47E-02 at (  15,  10,   1)
       Max VN number:   0.50E-01 at (  15,  11,   1)
       Radiation Loss to Boundaries:        -0.017 kW
       Mesh    2
       Max CFL number:  0.23E-01 at (   1,  25,   3)
       Max divergence: -0.47E-02 at (  11,  39,   6)
       Min divergence: -0.47E-02 at (  25,   1,   1)
       Max VN number:   0.32E-02 at (   2,  25,   2)
       Radiation Loss to Boundaries:        -0.031 kW
 
       Time Step       6   June 26, 2020  16:19:17
       Step Size:    0.500E-01 s, Total Time:       0.30 s
       Pressure Iterations:      1
       Maximum Velocity Error:  0.18E-01 on Mesh   1 at (   0  25  10)
       Maximum Pressure Error:  0.19E-01 on Mesh   2 at (  25  50  12)
       ---------------------------------------------------------------
       Mesh    1
       Max CFL number:  0.21E+00 at (  13,  13,   1)
       Max divergence:  0.17E-14 at (  25,  50,  12)
       Min divergence: -0.47E-02 at (  11,  11,   2)
       Max VN number:   0.49E-01 at (  15,  11,   1)
       Radiation Loss to Boundaries:        -0.021 kW
       Mesh    2
       Max CFL number:  0.26E-01 at (   1,  25,   3)
       Max divergence: -0.47E-02 at (  11,  39,   6)
       Min divergence: -0.47E-02 at (  25,   1,   1)
       Max VN number:   0.39E-02 at (   2,  25,   1)
       Radiation Loss to Boundaries:        -0.039 kW
 
       Time Step       7   June 26, 2020  16:19:17
       Step Size:    0.500E-01 s, Total Time:       0.35 s
       Pressure Iterations:      1
       Maximum Velocity Error:  0.16E-01 on Mesh   2 at (   0  17   2)
       Maximum Pressure Error:  0.21E-01 on Mesh   2 at (  25  50  12)
       ---------------------------------------------------------------
       Mesh    1
       Max CFL number:  0.21E+00 at (  13,  13,   1)
       Max divergence:  0.18E-14 at (  25,  50,   7)
       Min divergence: -0.47E-02 at (  11,  11,   2)
       Max VN number:   0.48E-01 at (  15,  11,   1)
       Radiation Loss to Boundaries:        -0.023 kW
       Mesh    2
       Max CFL number:  0.28E-01 at (   1,  25,   3)
       Max divergence: -0.47E-02 at (  13,  34,   6)
       Min divergence: -0.47E-02 at (  25,   1,  12)
       Max VN number:   0.47E-02 at (   2,  25,   1)
       Radiation Loss to Boundaries:        -0.045 kW
 
       Time Step       8   June 26, 2020  16:19:17
       Step Size:    0.500E-01 s, Total Time:       0.40 s
       Pressure Iterations:      1
       Maximum Velocity Error:  0.15E-01 on Mesh   1 at (  26  17   2)
       Maximum Pressure Error:  0.20E-01 on Mesh   2 at (  25  50  12)
       ---------------------------------------------------------------
       Mesh    1
       Max CFL number:  0.21E+00 at (  13,  13,   1)
       Max divergence:  0.17E-14 at (  25,  50,   8)
       Min divergence: -0.48E-02 at (  11,  11,   2)
       Max VN number:   0.46E-01 at (  15,  11,   1)
       Radiation Loss to Boundaries:        -0.028 kW
       Mesh    2
       Max CFL number:  0.30E-01 at (   1,  25,   3)
       Max divergence: -0.47E-02 at (  13,  34,   6)
       Min divergence: -0.47E-02 at (  25,   1,  12)
       Max VN number:   0.55E-02 at (   2,  25,   1)
       Radiation Loss to Boundaries:        -0.053 kW
 
       Time Step       9   June 26, 2020  16:19:17
       Step Size:    0.500E-01 s, Total Time:       0.45 s
       Pressure Iterations:      1
       Maximum Velocity Error:  0.15E-01 on Mesh   2 at (   1  50   1)
       Maximum Pressure Error:  0.17E-01 on Mesh   2 at (  25  50  12)
       ---------------------------------------------------------------
       Mesh    1
       Max CFL number:  0.21E+00 at (  13,  13,   1)
       Max divergence:  0.15E-14 at (  25,  47,  12)
       Min divergence: -0.48E-02 at (  11,  11,   2)
       Max VN number:   0.45E-01 at (  15,  11,   1)
       Radiation Loss to Boundaries:        -0.032 kW
       Mesh    2
       Max CFL number:  0.32E-01 at (   1,  25,   3)
       Max divergence: -0.47E-02 at (  13,  34,   6)
       Min divergence: -0.47E-02 at (  25,   1,  12)
       Max VN number:   0.60E-02 at (   2,  25,   1)
       Radiation Loss to Boundaries:        -0.061 kW
 
       Time Step      10   June 26, 2020  16:19:17
       Step Size:    0.500E-01 s, Total Time:       0.50 s
       Pressure Iterations:      1
       Maximum Velocity Error:  0.17E-01 on Mesh   2 at (   1  50   1)
       Maximum Pressure Error:  0.14E-01 on Mesh   1 at (   1   1   1)
       ---------------------------------------------------------------
       Mesh    1
       Max CFL number:  0.21E+00 at (  13,  13,   1)
       Max divergence:  0.13E-14 at (  25,  47,  12)
       Min divergence: -0.48E-02 at (  15,  11,   2)
       Max VN number:   0.43E-01 at (  15,  11,   1)
       Radiation Loss to Boundaries:        -0.033 kW
       Mesh    2
       Max CFL number:  0.32E-01 at (   1,  25,   3)
       Max divergence: -0.47E-02 at (  14,  32,   6)
       Min divergence: -0.47E-02 at (  25,   1,  12)
       Max VN number:   0.64E-02 at (   2,  25,   1)
       Radiation Loss to Boundaries:        -0.064 kW
 
       Time Step      20   June 26, 2020  16:19:18
       Step Size:    0.500E-01 s, Total Time:       1.00 s
       Pressure Iterations:      1
       Maximum Velocity Error:  0.20E-01 on Mesh   1 at (  26  19   1)
       Maximum Pressure Error:  0.29E-01 on Mesh   2 at (  25  50   1)
       ---------------------------------------------------------------
       Mesh    1
       Max CFL number:  0.21E+00 at (  13,  13,   1)
       Max divergence:  0.30E-15 at (   1,  47,   9)
       Min divergence: -0.47E-02 at (  10,  11,   1)
       Max VN number:   0.28E-01 at (  11,  15,   1)
       Radiation Loss to Boundaries:        -0.061 kW
       Mesh    2
       Max CFL number:  0.24E-01 at (   1,  25,   3)
       Max divergence: -0.47E-02 at (  13,  34,   7)
       Min divergence: -0.47E-02 at (   2,  50,   1)
       Max VN number:   0.35E-02 at (   2,  25,   2)
       Radiation Loss to Boundaries:        -0.117 kW
 
       Time Step      30   June 26, 2020  16:19:18
       Step Size:    0.500E-01 s, Total Time:       1.50 s
       Pressure Iterations:      1
       Maximum Velocity Error:  0.20E-01 on Mesh   1 at (  26  25  12)
       Maximum Pressure Error:  0.14E-01 on Mesh   2 at (   1   1   1)
       ---------------------------------------------------------------
       Mesh    1
       Max CFL number:  0.21E+00 at (  13,  13,   1)
       Max divergence:  0.28E-15 at (   1,  29,  12)
       Min divergence: -0.48E-02 at (  11,  16,   1)
       Max VN number:   0.24E-01 at (  15,  15,   2)
       Radiation Loss to Boundaries:        -0.081 kW
       Mesh    2
       Max CFL number:  0.27E-01 at (   1,  25,   3)
       Max divergence: -0.47E-02 at (  14,  32,   6)
       Min divergence: -0.47E-02 at (  25,   1,   1)
       Max VN number:   0.38E-02 at (   2,  25,   2)
       Radiation Loss to Boundaries:        -0.154 kW
 
       Time Step      40   June 26, 2020  16:19:19
       Step Size:    0.500E-01 s, Total Time:       2.00 s
       Pressure Iterations:      1
       Maximum Velocity Error:  0.48E-02 on Mesh   1 at (  26  22   1)
       Maximum Pressure Error:  0.24E-01 on Mesh   1 at (   2  26   1)
       ---------------------------------------------------------------
       Mesh    1
       Max CFL number:  0.21E+00 at (  13,  13,   1)
       Max divergence:  0.82E-15 at (  25,  47,  12)
       Min divergence: -0.49E-02 at (  16,  15,   1)
       Max VN number:   0.25E-01 at (  16,  13,   1)
       Radiation Loss to Boundaries:        -0.087 kW
       Mesh    2
       Max CFL number:  0.26E-01 at (   1,  25,   3)
       Max divergence: -0.46E-02 at (  14,  33,   6)
       Min divergence: -0.47E-02 at (  25,   1,  12)
       Max VN number:   0.36E-02 at (   2,  25,   9)
       Radiation Loss to Boundaries:        -0.162 kW
 
       Time Step      50   June 26, 2020  16:19:19
       Step Size:    0.500E-01 s, Total Time:       2.50 s
       Pressure Iterations:      1
       Maximum Velocity Error:  0.13E-01 on Mesh   1 at (   0  25  12)
       Maximum Pressure Error:  0.18E-01 on Mesh   1 at (   2  26  12)
       ---------------------------------------------------------------
       Mesh    1
       Max CFL number:  0.21E+00 at (  13,  13,   1)
       Max divergence:  0.25E-15 at (  25,  50,  12)
       Min divergence: -0.50E-02 at (  11,  16,   1)
       Max VN number:   0.28E-01 at (  15,  15,   1)
       Radiation Loss to Boundaries:        -0.097 kW
       Mesh    2
       Max CFL number:  0.30E-01 at (   1,  25,   3)
       Max divergence: -0.46E-02 at (  14,  34,   6)
       Min divergence: -0.47E-02 at (  25,   1,  12)
       Max VN number:   0.43E-02 at (   2,  25,   9)
       Radiation Loss to Boundaries:        -0.182 kW
 
       Time Step      60   June 26, 2020  16:19:20
       Step Size:    0.500E-01 s, Total Time:       3.00 s
       Pressure Iterations:      1
       Maximum Velocity Error:  0.97E-02 on Mesh   1 at (   0  25   1)
       Maximum Pressure Error:  0.32E-01 on Mesh   2 at (   1  26   1)
       ---------------------------------------------------------------
       Mesh    1
       Max CFL number:  0.21E+00 at (  13,  13,   1)
       Max divergence:  0.33E-15 at (   1,  47,  12)
       Min divergence: -0.49E-02 at (  16,  16,   1)
       Max VN number:   0.31E-01 at (  11,  11,   1)
       Radiation Loss to Boundaries:        -0.105 kW
       Mesh    2
       Max CFL number:  0.26E-01 at (   1,  25,  11)
       Max divergence: -0.46E-02 at (  14,  34,   6)
       Min divergence: -0.46E-02 at (  25,   1,   1)
       Max VN number:   0.41E-02 at (   2,  25,  11)
       Radiation Loss to Boundaries:        -0.196 kW
 
       Time Step      70   June 26, 2020  16:19:20
       Step Size:    0.500E-01 s, Total Time:       3.50 s
       Pressure Iterations:      1
       Maximum Velocity Error:  0.57E-02 on Mesh   1 at (  26  25  12)
       Maximum Pressure Error:  0.34E-01 on Mesh   2 at (   1  26  12)
       ---------------------------------------------------------------
       Mesh    1
       Max CFL number:  0.20E+00 at (  13,  13,   1)
       Max divergence:  0.99E-15 at (  25,  47,  12)
       Min divergence: -0.50E-02 at (  12,  12,   6)
       Max VN number:   0.29E-01 at (  11,  11,   1)
       Radiation Loss to Boundaries:        -0.100 kW
       Mesh    2
       Max CFL number:  0.27E-01 at (   1,  25,  11)
       Max divergence: -0.46E-02 at (  14,  34,   6)
       Min divergence: -0.46E-02 at (  25,   1,  12)
       Max VN number:   0.43E-02 at (   2,  25,  11)
       Radiation Loss to Boundaries:        -0.186 kW
 
       Time Step      80   June 26, 2020  16:19:21
       Step Size:    0.500E-01 s, Total Time:       4.00 s
       Pressure Iterations:      1
       Maximum Velocity Error:  0.91E-02 on Mesh   1 at (  26  25   1)
       Maximum Pressure Error:  0.16E-01 on Mesh   2 at (   1  26   1)
       ---------------------------------------------------------------
       Mesh    1
       Max CFL number:  0.20E+00 at (  13,  13,   1)
       Max divergence:  0.57E-15 at (  25,  47,  12)
       Min divergence: -0.52E-02 at (  12,  12,   7)
       Max VN number:   0.27E-01 at (  11,  11,   1)
       Radiation Loss to Boundaries:        -0.106 kW
       Mesh    2
       Max CFL number:  0.29E-01 at (   1,  25,  11)
       Max divergence: -0.46E-02 at (  14,  35,   6)
       Min divergence: -0.46E-02 at (  25,   1,  12)
       Max VN number:   0.47E-02 at (   2,  25,  11)
       Radiation Loss to Boundaries:        -0.198 kW
 
       Time Step      90   June 26, 2020  16:19:21
       Step Size:    0.500E-01 s, Total Time:       4.50 s
       Pressure Iterations:      1
       Maximum Velocity Error:  0.43E-02 on Mesh   1 at (  26  25  12)
       Maximum Pressure Error:  0.35E-01 on Mesh   2 at (   1  26   1)
       ---------------------------------------------------------------
       Mesh    1
       Max CFL number:  0.20E+00 at (  13,  13,   1)
       Max divergence:  0.45E-15 at (  25,  47,  12)
       Min divergence: -0.54E-02 at (  12,  14,   7)
       Max VN number:   0.26E-01 at (  12,  14,   7)
       Radiation Loss to Boundaries:        -0.110 kW
       Mesh    2
       Max CFL number:  0.27E-01 at (   1,  25,  11)
       Max divergence: -0.46E-02 at (  14,  35,   6)
       Min divergence: -0.46E-02 at (  25,   1,   1)
       Max VN number:   0.47E-02 at (   2,  25,  11)
       Radiation Loss to Boundaries:        -0.207 kW
 
       Time Step     100   June 26, 2020  16:19:22
       Step Size:    0.500E-01 s, Total Time:       5.00 s
       Pressure Iterations:      1
       Maximum Velocity Error:  0.41E-02 on Mesh   1 at (   0  25   1)
       Maximum Pressure Error:  0.29E-01 on Mesh   2 at (   1  26  12)
       ---------------------------------------------------------------
       Mesh    1
       Max CFL number:  0.20E+00 at (  13,  13,   1)
       Max divergence:  0.79E-15 at (  25,  47,  12)
       Min divergence: -0.55E-02 at (  12,  12,   8)
       Max VN number:   0.27E-01 at (  12,  14,   7)
       Radiation Loss to Boundaries:        -0.102 kW
       Mesh    2
       Max CFL number:  0.27E-01 at (   1,  25,  11)
       Max divergence: -0.46E-02 at (  14,  35,   6)
       Min divergence: -0.46E-02 at (  25,   1,  12)
       Max VN number:   0.48E-02 at (   2,  25,  11)
       Radiation Loss to Boundaries:        -0.193 kW
 
       Time Step     200   June 26, 2020  16:19:29
       Step Size:    0.500E-01 s, Total Time:      10.00 s
       Pressure Iterations:      1
       Maximum Velocity Error:  0.18E-01 on Mesh   1 at (  26   1   1)
       Maximum Pressure Error:  0.68E-01 on Mesh   2 at (   1  26  12)
       ---------------------------------------------------------------
       Mesh    1
       Max CFL number:  0.94E-01 at (  14,  14,   9)
       Max divergence:  0.82E-03 at (  11,  13,  11)
       Min divergence: -0.21E-02 at (  25,  38,   1)
       Max VN number:   0.25E-01 at (  17,  13,  12)
       Radiation Loss to Boundaries:        -0.012 kW
       Mesh    2
       Max CFL number:  0.88E-01 at (   1,  38,   2)
       Max divergence:  0.19E-03 at (   1,  36,   1)
       Min divergence: -0.14E-03 at (   1,  38,   1)
       Max VN number:   0.24E-01 at (   2,  38,   1)
       Radiation Loss to Boundaries:         0.003 kW
 
       Time Step     300   June 26, 2020  16:19:35
       Step Size:    0.500E-01 s, Total Time:      15.00 s
       Pressure Iterations:      1
       Maximum Velocity Error:  0.97E-03 on Mesh   1 at (  26  38   9)
       Maximum Pressure Error:  0.52E-01 on Mesh   2 at (   1  40  10)
       ---------------------------------------------------------------
       Mesh    1
       Max CFL number:  0.73E-01 at (  21,  38,   3)
       Max divergence:  0.44E-03 at (  11,  13,   8)
       Min divergence: -0.16E-02 at (  25,  37,   6)
       Max VN number:   0.19E-01 at (  12,  14,  12)
       Radiation Loss to Boundaries:        -0.005 kW
       Mesh    2
       Max CFL number:  0.49E-01 at (   2,  37,   8)
       Max divergence:  0.17E-03 at (   1,  38,   7)
       Min divergence: -0.15E-03 at (   1,  37,   4)
       Max VN number:   0.14E-01 at (   1,  37,   6)
       Radiation Loss to Boundaries:        -0.005 kW
 
       Time Step     400   June 26, 2020  16:19:47
       Step Size:    0.500E-01 s, Total Time:      20.00 s
       Pressure Iterations:      1
       Maximum Velocity Error:  0.71E-01 on Mesh   1 at (  26   1  12)
       Maximum Pressure Error:  0.20E+00 on Mesh   1 at (   5  13  12)
       ---------------------------------------------------------------
       Mesh    1
       Max CFL number:  0.30E+00 at (   1,  32,  10)
       Max divergence:  0.38E-03 at (  24,  34,   1)
       Min divergence: -0.12E-03 at (  25,  35,   2)
       Max VN number:   0.75E-01 at (  25,  36,  11)
       Radiation Loss to Boundaries:         0.033 kW
       Mesh    2
       Max CFL number:  0.30E+00 at (   1,  36,  10)
       Max divergence:  0.40E-03 at (   2,  36,   1)
       Min divergence:  0.30E-04 at (   1,  36,   3)
       Max VN number:   0.53E-01 at (   1,  36,  10)
       Radiation Loss to Boundaries:         0.031 kW
 
       Time Step     500   June 26, 2020  16:20:01
       Step Size:    0.500E-01 s, Total Time:      25.00 s
       Pressure Iterations:      1
       Maximum Velocity Error:  0.11E-01 on Mesh   1 at (  26  38   7)
       Maximum Pressure Error:  0.54E-01 on Mesh   1 at (   5  13  12)
       ---------------------------------------------------------------
       Mesh    1
       Max CFL number:  0.24E+00 at (   8,  37,   2)
       Max divergence:  0.30E-03 at (   6,  13,   6)
       Min divergence: -0.13E-03 at (   8,  15,   9)
       Max VN number:   0.45E-01 at (   6,  39,   1)
       Radiation Loss to Boundaries:         0.003 kW
       Mesh    2
       Max CFL number:  0.20E+00 at (   2,  38,   5)
       Max divergence:  0.43E-04 at (   4,  35,   2)
       Min divergence: -0.27E-04 at (   3,  36,   3)
       Max VN number:   0.43E-01 at (   1,  40,   5)
       Radiation Loss to Boundaries:        -0.002 kW
 


 DEVICE Activation Times

   4  door 2                                                           5.0 s
   5  door 3                                                          15.0 s


 Time Stepping Wall Clock Time (s):       44.734
 Total Elapsed Wall Clock Time (s):       47.433

STOP: FDS completed successfully (CHID: zone_shape)
