
 Fire Dynamics Simulator

 Current Date     : February 19, 2020  19:24:14
 Revision         : -master
 Revision Date    : Wed Feb 19 18:38:00 2020 +0100
 Compiler         : Intel ifort 18.0.1
 Compilation Date : Feb 19, 2020 18:48:59

 MPI Enabled;    Number of MPI Processes:       4
 OpenMP Enabled; Number of OpenMP Threads:      4

 MPI version: 3.1
 MPI library version: Intel(R) MPI Library 2018 Update 1 for Linux* OS


 Job TITLE        : Test of opening pressure ZONEs with structured ScaRC solver
 Job ID string    : zone_break_slow_scarc


 Grid Dimensions, Mesh     1

   Cells in the X Direction            25
   Cells in the Y Direction            25
   Cells in the Z Direction            12
   Number of Grid Cells              7500


 Physical Dimensions, Mesh     1

   Length (m)                       5.000
   Width  (m)                       5.000
   Height (m)                       2.400
   Initial Time Step (s)            0.204

 Grid Dimensions, Mesh     2

   Cells in the X Direction            25
   Cells in the Y Direction            25
   Cells in the Z Direction            12
   Number of Grid Cells              7500


 Physical Dimensions, Mesh     2

   Length (m)                       5.000
   Width  (m)                       5.000
   Height (m)                       2.400
   Initial Time Step (s)            0.204

 Grid Dimensions, Mesh     3

   Cells in the X Direction            25
   Cells in the Y Direction            25
   Cells in the Z Direction            12
   Number of Grid Cells              7500


 Physical Dimensions, Mesh     3

   Length (m)                       5.000
   Width  (m)                       5.000
   Height (m)                       2.400
   Initial Time Step (s)            0.204

 Grid Dimensions, Mesh     4

   Cells in the X Direction            25
   Cells in the Y Direction            25
   Cells in the Z Direction            12
   Number of Grid Cells              7500


 Physical Dimensions, Mesh     4

   Length (m)                       5.000
   Width  (m)                       5.000
   Height (m)                       2.400
   Initial Time Step (s)            0.204

Total Number of Grid Cells         30000


 Miscellaneous Parameters

   Simulation Start Time (s)          0.0
   Simulation End Time (s)           30.0
   LES Calculation
   Eddy Viscosity:           Deardorff Model (C_DEARDORFF = 0.10)
   Near-wall Eddy Viscosity: Smagorinsky with Van Driest damping (C_SMAGORINSKY = 0.20)
   Turbulent Prandtl Number:         0.50
   Turbulent Schmidt Number:         0.50
   Ambient Temperature (C):         20.00


 Mass Fraction Transformation Matrix to Convert Species Mixtures (Columns) to Primitive Species (Rows)

                         AIR     
   NITROGEN              0.762470
   OXYGEN                0.230997
   CARBON DIOXIDE        0.000591
   WATER VAPOR           0.005941


 Primitive Species Information

   NITROGEN
   Gas Species
   Molecular Weight (g/mol)            28.01340
   Ambient Density (kg/m^3)            1.165
   Enthalpy of Formation (J/kg)        0.00E+00

   OXYGEN
   Gas Species
   Molecular Weight (g/mol)            31.99880
   Ambient Density (kg/m^3)            1.330
   Enthalpy of Formation (J/kg)        0.00E+00

   CARBON DIOXIDE
   Gas Species
   Molecular Weight (g/mol)            44.00950
   Ambient Density (kg/m^3)            1.830
   Enthalpy of Formation (J/kg)       -8.94E+06

   WATER VAPOR
   Gas Species
   Molecular Weight (g/mol)            18.01528
   Ambient Density (kg/m^3)            0.749
   Enthalpy of Formation (J/kg)       -1.34E+07


 Tracked (Lumped) Species Information

   AIR
   Molecular Weight (g/mol)            28.75199
   Ambient Density (kg/m^3)            1.195
   Initial Mass Fraction               1.000
   Enthalpy of Formation (J/kg)     -8.50E+04

   Sub Species                    Mass Fraction     Mole Fraction
   NITROGEN                       7.624701E-01      7.825730E-01
   OXYGEN                         2.309974E-01      2.075589E-01
   CARBON DIOXIDE                 5.914651E-04      3.864120E-04
   WATER VAPOR                    5.940984E-03      9.481679E-03
 
     Viscosity (kg/m/s) Ambient,  293 K:  1.80E-05
                                  500 K:  2.61E-05
                                 1000 K:  4.13E-05
                                 1500 K:  5.37E-05
   Therm. Cond. (W/m/K) Ambient,  293 K:  2.56E-02
                                  500 K:  3.81E-02
                                 1000 K:  6.69E-02
                                 1500 K:  9.25E-02
        Enthalpy (J/kg) Ambient,  293 K: -9.01E+04
                                  500 K:  1.22E+05
                                 1000 K:  6.72E+05
                                 1500 K:  1.27E+06
    Spec. Heat (J/kg/K) Ambient,  293 K:  1.02E+03
                                  500 K:  1.04E+03
                                 1000 K:  1.16E+03
                                 1500 K:  1.23E+03
   Diff. Coeff. (m^2/s) Ambient,  293 K:  1.99E-05
                                  500 K:  4.96E-05
                                 1000 K:  1.58E-04
                                 1500 K:  3.09E-04


 Material Information


 Surface Conditions

   0 INERT (DEFAULT)

   1 BLOW
     AIR Mass Flux (kg/s/m2)   1.00E-01

   2 OPEN
     Passive Vent to Atmosphere

   3 MIRROR
     Symmetry Plane

   4 INTERPOLATED

   5 PERIODIC

   6 HVAC

   7 MASSLESS TRACER

   8 DROPLET

   9 EVACUATION_OUTFLOW
     Normal Velocity (m/s)         0.000

  10 MASSLESS TARGET

  11 PERIODIC WIND

  12 SLICE


 Device Coordinates

     1 Coords:      1.000000      1.000000      1.000000, Make: null, ID: pres_1, Quantity: PRESSURE
     2 Coords:      7.500000      4.998000      1.000000, Make: null, ID: pres_2, Quantity: PRESSURE
     3 Coords:      2.500000      7.500000      1.000000, Make: null, ID: pres_3, Quantity: PRESSURE
     4 Coords:      0.002000      0.002000      0.002000, Make: null, ID: door 1, Quantity: TIME
     5 Coords:      0.002000      0.002000      0.002000, Make: null, ID: door 2, Quantity: TIME
     6 Coords:      0.002000      0.002000      0.002000, Make: null, ID: door 3, Quantity: TIME


 Slice File Information, Mesh     1

   Sampling Interval (s)             0.030

   1 Nodes:   0  25   0  25   5   5, Quantity: TEMPERATURE
   2 Nodes:   0  25   0  25   5   5, Quantity: U-VELOCITY
   3 Nodes:   0  25   0  25   5   5, Quantity: V-VELOCITY
   4 Nodes:   0  25   0  25   5   5, Quantity: W-VELOCITY
   5 Nodes:   0  25   0  25   5   5, Quantity: PRESSURE
   6 Nodes:   0  25   0  25   5   5, Quantity: DENSITY


 Radiation Model Information

   Number of control angles  104
   Time step increment         3
   Angle increment             5
   Theta band N_phi   Solid angle
     1:        4     0.120
     2:       12     0.114
     3:       16     0.127
     4:       20     0.120
     5:       20     0.120
     6:       16     0.127
     7:       12     0.114
     8:        4     0.120
   Using gray gas absorption.
   Mean beam length  0.100 m


 SCARC Information

   Discretization        STRUCTURED
   Global solver             KRYLOV
   Storage technique         BANDED
   Preconditioner               FFT
   Max iterations              1000
   Stopping accuracy       0.10E-07
 
 

 Run Time Diagnostics

       Time Step       1   February 19, 2020  19:24:14
       Step Size:    0.204E+00 s, Total Time:       0.20 s
       Pressure Iterations:      1
       Maximum Velocity Error:  0.21E-02 on Mesh   3 at (   0   2   6)
       Maximum Pressure Error:  0.31E-05 on Mesh   3 at (   3   1  11)
       ScaRC: iterations    45, residual  0.87E-08, convergence rate   0.63E+00
       ---------------------------------------------------------------
       Mesh    1
       Max CFL number:  0.86E-01 at (  13,  12,   1)
       Max divergence: -0.14E-02 at (  14,  12,   1)
       Min divergence: -0.14E-02 at (  20,  17,  11)
       Max VN number:   0.14E-01 at (  15,  18,   6)
       Radiation Loss to Boundaries:        -0.002 kW
       Mesh    2
       Max CFL number:  0.19E-01 at (  11,   9,   8)
       Max divergence:  0.11E-05 at (   9,  17,   5)
       Min divergence: -0.13E-05 at (  21,  24,   2)
       Max VN number:   0.14E-01 at (  20,  24,   9)
       Mesh    3
       Max CFL number:  0.19E-01 at (  15,  20,   7)
       Max divergence:  0.12E-05 at (   8,   2,   5)
       Min divergence: -0.11E-05 at (  16,  15,  10)
       Max VN number:   0.14E-01 at (   4,  14,   8)
       Mesh    4
       Max CFL number:  0.19E-01 at (  19,   1,   8)
       Max divergence:  0.13E-05 at (  21,  16,   9)
       Min divergence: -0.12E-05 at (   5,   6,  11)
       Max VN number:   0.13E-01 at (   8,   2,   7)
 
       Time Step       2   February 19, 2020  19:24:14
       Step Size:    0.204E+00 s, Total Time:       0.41 s
       Pressure Iterations:      1
       Maximum Velocity Error:  0.14E-02 on Mesh   3 at (   3   1  11)
       Maximum Pressure Error:  0.81E-04 on Mesh   1 at (   1   1  12)
       ScaRC: iterations    45, residual  0.62E-08, convergence rate   0.62E+00
       ---------------------------------------------------------------
       Mesh    1
       Max CFL number:  0.86E-01 at (  15,  11,   1)
       Max divergence: -0.14E-02 at (  14,  12,   1)
       Min divergence: -0.14E-02 at (   8,  25,  11)
       Max VN number:   0.18E-01 at (  15,  11,   1)
       Radiation Loss to Boundaries:        -0.007 kW
       Mesh    2
       Max CFL number:  0.19E-01 at (  11,   9,   8)
       Max divergence:  0.11E-05 at (   9,  17,   5)
       Min divergence: -0.13E-05 at (  21,  24,   2)
       Max VN number:   0.14E-01 at (  20,  24,   9)
       Mesh    3
       Max CFL number:  0.19E-01 at (  15,  20,   7)
       Max divergence:  0.12E-05 at (   8,   2,   5)
       Min divergence: -0.11E-05 at (  16,  15,  10)
       Max VN number:   0.14E-01 at (   4,  14,   8)
       Mesh    4
       Max CFL number:  0.19E-01 at (  19,   1,   8)
       Max divergence:  0.13E-05 at (  21,  16,   9)
       Min divergence: -0.12E-05 at (   5,   6,  11)
       Max VN number:   0.13E-01 at (   8,   2,   7)
 
       Time Step       3   February 19, 2020  19:24:14
       Step Size:    0.204E+00 s, Total Time:       0.61 s
       Pressure Iterations:      1
       Maximum Velocity Error:  0.14E-02 on Mesh   3 at (   0   2   6)
       Maximum Pressure Error:  0.14E-03 on Mesh   1 at (   1  25  12)
       ScaRC: iterations    44, residual  0.57E-08, convergence rate   0.64E+00
       ---------------------------------------------------------------
       Mesh    1
       Max CFL number:  0.86E-01 at (  15,  11,   1)
       Max divergence: -0.14E-02 at (  14,  12,   1)
       Min divergence: -0.14E-02 at (   1,  25,  12)
       Max VN number:   0.17E-01 at (  15,  11,   1)
       Radiation Loss to Boundaries:        -0.012 kW
       Mesh    2
       Max CFL number:  0.19E-01 at (  11,   9,   8)
       Max divergence:  0.11E-05 at (   9,  17,   5)
       Min divergence: -0.13E-05 at (  21,  24,   2)
       Max VN number:   0.14E-01 at (  20,  24,   9)
       Mesh    3
       Max CFL number:  0.18E-01 at (  15,  20,   7)
       Max divergence:  0.13E-05 at (   8,   2,   5)
       Min divergence: -0.11E-05 at (  16,  15,  10)
       Max VN number:   0.14E-01 at (   4,  14,   8)
       Mesh    4
       Max CFL number:  0.19E-01 at (  19,   1,   8)
       Max divergence:  0.13E-05 at (  21,  16,   9)
       Min divergence: -0.12E-05 at (   5,   6,  11)
       Max VN number:   0.13E-01 at (   8,   2,   7)
 
       Time Step       4   February 19, 2020  19:24:14
       Step Size:    0.204E+00 s, Total Time:       0.82 s
       Pressure Iterations:      1
       Maximum Velocity Error:  0.17E-02 on Mesh   1 at (   1  26   1)
       Maximum Pressure Error:  0.25E-03 on Mesh   1 at (   1  25  12)
       ScaRC: iterations    43, residual  0.85E-08, convergence rate   0.64E+00
       ---------------------------------------------------------------
       Mesh    1
       Max CFL number:  0.86E-01 at (  15,  11,   1)
       Max divergence: -0.14E-02 at (  15,  13,   1)
       Min divergence: -0.14E-02 at (   1,   1,  12)
       Max VN number:   0.17E-01 at (  15,  11,   1)
       Radiation Loss to Boundaries:        -0.016 kW
       Mesh    2
       Max CFL number:  0.18E-01 at (  11,   9,   8)
       Max divergence:  0.11E-05 at (  16,  24,   3)
       Min divergence: -0.13E-05 at (  21,  24,   2)
       Max VN number:   0.14E-01 at (  20,  24,   9)
       Mesh    3
       Max CFL number:  0.18E-01 at (  15,  20,   7)
       Max divergence:  0.13E-05 at (   8,   2,   5)
       Min divergence: -0.11E-05 at (  16,  15,  10)
       Max VN number:   0.13E-01 at (   4,  14,   8)
       Mesh    4
       Max CFL number:  0.18E-01 at (  19,   1,   8)
       Max divergence:  0.13E-05 at (  21,  16,   9)
       Min divergence: -0.12E-05 at (   5,   6,  11)
       Max VN number:   0.13E-01 at (   8,   2,   7)
 
       Time Step       5   February 19, 2020  19:24:14
       Step Size:    0.204E+00 s, Total Time:       1.02 s
       Pressure Iterations:      1
       Maximum Velocity Error:  0.18E-02 on Mesh   1 at (   1  26   1)
       Maximum Pressure Error:  0.41E-03 on Mesh   1 at (   1  25   1)
       ScaRC: iterations    44, residual  0.49E-08, convergence rate   0.64E+00
       ---------------------------------------------------------------
       Mesh    1
       Max CFL number:  0.86E-01 at (  11,  12,   1)
       Max divergence: -0.14E-02 at (  15,  13,   1)
       Min divergence: -0.14E-02 at (   1,   1,  12)
       Max VN number:   0.16E-01 at (  15,  11,   1)
       Radiation Loss to Boundaries:        -0.021 kW
       Mesh    2
       Max CFL number:  0.18E-01 at (  11,   9,   8)
       Max divergence:  0.11E-05 at (   9,  17,   5)
       Min divergence: -0.13E-05 at (  21,  24,   2)
       Max VN number:   0.14E-01 at (  20,  24,   9)
       Mesh    3
       Max CFL number:  0.18E-01 at (  15,  20,   7)
       Max divergence:  0.13E-05 at (   8,   2,   5)
       Min divergence: -0.11E-05 at (  16,  15,  10)
       Max VN number:   0.13E-01 at (   4,  14,   8)
       Mesh    4
       Max CFL number:  0.18E-01 at (  19,   1,   8)
       Max divergence:  0.13E-05 at (  21,  16,   9)
       Min divergence: -0.12E-05 at (   5,   6,  11)
       Max VN number:   0.13E-01 at (   8,   2,   7)
 
       Time Step       6   February 19, 2020  19:24:14
       Step Size:    0.204E+00 s, Total Time:       1.22 s
       Pressure Iterations:      1
       Maximum Velocity Error:  0.18E-02 on Mesh   1 at (  25  26   1)
       Maximum Pressure Error:  0.57E-03 on Mesh   1 at (   1  25   1)
       ScaRC: iterations    43, residual  0.91E-08, convergence rate   0.64E+00
       ---------------------------------------------------------------
       Mesh    1
       Max CFL number:  0.85E-01 at (  14,  13,   1)
       Max divergence: -0.14E-02 at (  15,  13,   1)
       Min divergence: -0.14E-02 at (   1,   1,  12)
       Max VN number:   0.16E-01 at (  15,  11,   1)
       Radiation Loss to Boundaries:        -0.026 kW
       Mesh    2
       Max CFL number:  0.18E-01 at (  11,   9,   8)
       Max divergence:  0.11E-05 at (   9,  17,   5)
       Min divergence: -0.13E-05 at (  21,  24,   2)
       Max VN number:   0.14E-01 at (  20,  24,   9)
       Mesh    3
       Max CFL number:  0.18E-01 at (  15,  20,   7)
       Max divergence:  0.13E-05 at (   8,   2,   5)
       Min divergence: -0.11E-05 at (  16,  15,  10)
       Max VN number:   0.13E-01 at (   4,  14,   8)
       Mesh    4
       Max CFL number:  0.18E-01 at (  23,  21,   9)
       Max divergence:  0.13E-05 at (  21,  16,   9)
       Min divergence: -0.12E-05 at (   5,   6,  11)
       Max VN number:   0.13E-01 at (   8,   2,   7)
 
       Time Step       7   February 19, 2020  19:24:14
       Step Size:    0.204E+00 s, Total Time:       1.43 s
       Pressure Iterations:      1
       Maximum Velocity Error:  0.17E-02 on Mesh   1 at (  25  26   1)
       Maximum Pressure Error:  0.76E-03 on Mesh   1 at (  25  25   1)
       ScaRC: iterations    43, residual  0.67E-08, convergence rate   0.64E+00
       ---------------------------------------------------------------
       Mesh    1
       Max CFL number:  0.85E-01 at (  14,  13,   1)
       Max divergence: -0.14E-02 at (  15,  13,   1)
       Min divergence: -0.14E-02 at (   1,   1,  12)
       Max VN number:   0.16E-01 at (  15,  11,   1)
       Radiation Loss to Boundaries:        -0.030 kW
       Mesh    2
       Max CFL number:  0.18E-01 at (  13,  15,   2)
       Max divergence:  0.11E-05 at (  16,  24,   3)
       Min divergence: -0.13E-05 at (  21,  24,   2)
       Max VN number:   0.14E-01 at (  20,  24,   9)
       Mesh    3
       Max CFL number:  0.18E-01 at (  15,  20,   7)
       Max divergence:  0.13E-05 at (   8,   2,   5)
       Min divergence: -0.11E-05 at (  16,  15,  10)
       Max VN number:   0.13E-01 at (   4,  14,   8)
       Mesh    4
       Max CFL number:  0.18E-01 at (  23,  21,   9)
       Max divergence:  0.13E-05 at (  21,  16,   9)
       Min divergence: -0.12E-05 at (   5,   6,  11)
       Max VN number:   0.13E-01 at (   8,   2,   7)
 
       Time Step       8   February 19, 2020  19:24:14
       Step Size:    0.204E+00 s, Total Time:       1.63 s
       Pressure Iterations:      1
       Maximum Velocity Error:  0.15E-02 on Mesh   1 at (  25  26   1)
       Maximum Pressure Error:  0.96E-03 on Mesh   1 at (  25  25   1)
       ScaRC: iterations    43, residual  0.47E-08, convergence rate   0.64E+00
       ---------------------------------------------------------------
       Mesh    1
       Max CFL number:  0.85E-01 at (  14,  13,   1)
       Max divergence: -0.14E-02 at (  15,  13,   1)
       Min divergence: -0.14E-02 at (   1,   1,  12)
       Max VN number:   0.15E-01 at (  11,  11,   1)
       Radiation Loss to Boundaries:        -0.035 kW
       Mesh    2
       Max CFL number:  0.18E-01 at (  13,  15,   2)
       Max divergence:  0.11E-05 at (  16,  24,   3)
       Min divergence: -0.13E-05 at (  21,  24,   2)
       Max VN number:   0.14E-01 at (  20,  24,   9)
       Mesh    3
       Max CFL number:  0.18E-01 at (  15,  20,   7)
       Max divergence:  0.13E-05 at (   8,   2,   5)
       Min divergence: -0.11E-05 at (  16,  15,  10)
       Max VN number:   0.13E-01 at (   4,  14,   8)
       Mesh    4
       Max CFL number:  0.18E-01 at (  23,  21,   9)
       Max divergence:  0.13E-05 at (  21,  16,   9)
       Min divergence: -0.12E-05 at (   5,   6,  11)
       Max VN number:   0.13E-01 at (   8,   2,   7)
 
       Time Step       9   February 19, 2020  19:24:15
       Step Size:    0.204E+00 s, Total Time:       1.84 s
       Pressure Iterations:      1
       Maximum Velocity Error:  0.13E-02 on Mesh   1 at (   1  26  12)
       Maximum Pressure Error:  0.11E-02 on Mesh   1 at (  25  25   1)
       ScaRC: iterations    43, residual  0.60E-08, convergence rate   0.64E+00
       ---------------------------------------------------------------
       Mesh    1
       Max CFL number:  0.85E-01 at (  13,  13,   1)
       Max divergence: -0.14E-02 at (  11,  15,   1)
       Min divergence: -0.14E-02 at (   1,   1,  12)
       Max VN number:   0.15E-01 at (  15,  11,   1)
       Radiation Loss to Boundaries:        -0.040 kW
       Mesh    2
       Max CFL number:  0.18E-01 at (  13,  15,   2)
       Max divergence:  0.11E-05 at (  16,  24,   3)
       Min divergence: -0.13E-05 at (  21,  24,   2)
       Max VN number:   0.14E-01 at (  20,  24,   9)
       Mesh    3
       Max CFL number:  0.18E-01 at (  15,  20,   7)
       Max divergence:  0.13E-05 at (   8,   2,   5)
       Min divergence: -0.11E-05 at (  16,  15,  10)
       Max VN number:   0.13E-01 at (   4,  14,   8)
       Mesh    4
       Max CFL number:  0.18E-01 at (  23,  21,   9)
       Max divergence:  0.13E-05 at (  21,  16,   9)
       Min divergence: -0.12E-05 at (   5,   6,  11)
       Max VN number:   0.13E-01 at (   8,   2,   7)
 
       Time Step      10   February 19, 2020  19:24:15
       Step Size:    0.204E+00 s, Total Time:       2.04 s
       Pressure Iterations:      1
       Maximum Velocity Error:  0.12E-02 on Mesh   1 at (   1  26  12)
       Maximum Pressure Error:  0.13E-02 on Mesh   1 at (  25  25   1)
       ScaRC: iterations    43, residual  0.63E-08, convergence rate   0.64E+00
       ---------------------------------------------------------------
       Mesh    1
       Max CFL number:  0.85E-01 at (  14,  13,   1)
       Max divergence: -0.14E-02 at (  11,  11,   1)
       Min divergence: -0.14E-02 at (   1,   1,  12)
       Max VN number:   0.14E-01 at (  15,  11,   1)
       Radiation Loss to Boundaries:        -0.043 kW
       Mesh    2
       Max CFL number:  0.18E-01 at (  13,  15,   2)
       Max divergence:  0.11E-05 at (  16,  24,   3)
       Min divergence: -0.13E-05 at (  21,  24,   2)
       Max VN number:   0.14E-01 at (  20,  24,   9)
       Mesh    3
       Max CFL number:  0.18E-01 at (  15,  20,   7)
       Max divergence:  0.13E-05 at (   8,   2,   5)
       Min divergence: -0.11E-05 at (  16,  15,  10)
       Max VN number:   0.13E-01 at (   4,  14,   8)
       Mesh    4
       Max CFL number:  0.18E-01 at (  23,  21,   9)
       Max divergence:  0.13E-05 at (  21,  16,   9)
       Min divergence: -0.12E-05 at (   5,   6,  11)
       Max VN number:   0.13E-01 at (   8,   2,   7)
 
       Time Step      20   February 19, 2020  19:24:15
       Step Size:    0.204E+00 s, Total Time:       4.08 s
       Pressure Iterations:      1
       Maximum Velocity Error:  0.12E-02 on Mesh   1 at (   1  26  12)
       Maximum Pressure Error:  0.31E-02 on Mesh   1 at (  25  25   1)
       ScaRC: iterations    42, residual  0.61E-08, convergence rate   0.64E+00
       ---------------------------------------------------------------
       Mesh    1
       Max CFL number:  0.85E-01 at (  13,  13,   1)
       Max divergence: -0.14E-02 at (  11,  11,   1)
       Min divergence: -0.14E-02 at (  25,  25,   1)
       Max VN number:   0.13E-01 at (  11,  19,   2)
       Radiation Loss to Boundaries:        -0.085 kW
       Mesh    2
       Max CFL number:  0.18E-01 at (  13,  15,   2)
       Max divergence:  0.11E-05 at (   4,  22,   3)
       Min divergence: -0.13E-05 at (  21,  24,   2)
       Max VN number:   0.13E-01 at (  20,  24,   9)
       Mesh    3
       Max CFL number:  0.17E-01 at (   2,  22,   4)
       Max divergence:  0.13E-05 at (   8,   2,   5)
       Min divergence: -0.11E-05 at (   4,  14,   7)
       Max VN number:   0.13E-01 at (  17,  12,  10)
       Mesh    4
       Max CFL number:  0.18E-01 at (   2,  13,   9)
       Max divergence:  0.12E-05 at (  21,  16,   9)
       Min divergence: -0.12E-05 at (   5,   6,  11)
       Max VN number:   0.13E-01 at (   8,   2,   7)
 
       Time Step      30   February 19, 2020  19:24:16
       Step Size:    0.204E+00 s, Total Time:       6.12 s
       Pressure Iterations:      1
       Maximum Velocity Error:  0.11E-02 on Mesh   1 at (   1  26   1)
       Maximum Pressure Error:  0.48E-02 on Mesh   1 at (  25  25   1)
       ScaRC: iterations    41, residual  0.82E-08, convergence rate   0.63E+00
       ---------------------------------------------------------------
       Mesh    1
       Max CFL number:  0.85E-01 at (  13,  12,   1)
       Max divergence: -0.13E-02 at (  15,  11,   1)
       Min divergence: -0.14E-02 at (  25,  25,   1)
       Max VN number:   0.13E-01 at (  11,  19,   2)
       Radiation Loss to Boundaries:        -0.125 kW
       Mesh    2
       Max CFL number:  0.18E-01 at (  13,  15,   2)
       Max divergence:  0.11E-05 at (   4,  22,   3)
       Min divergence: -0.12E-05 at (  21,  24,   2)
       Max VN number:   0.13E-01 at (  22,   2,   7)
       Mesh    3
       Max CFL number:  0.18E-01 at (   8,   2,   5)
       Max divergence:  0.13E-05 at (   8,   2,   5)
       Min divergence: -0.11E-05 at (   4,  14,   7)
       Max VN number:   0.12E-01 at (  17,  12,  10)
       Mesh    4
       Max CFL number:  0.17E-01 at (   2,  13,   9)
       Max divergence:  0.12E-05 at (  21,  16,   9)
       Min divergence: -0.12E-05 at (   5,   6,  11)
       Max VN number:   0.12E-01 at (   8,   2,   7)
 
       Time Step      40   February 19, 2020  19:24:16
       Step Size:    0.204E+00 s, Total Time:       8.16 s
       Pressure Iterations:      1
       Maximum Velocity Error:  0.11E-02 on Mesh   1 at (   1  26  12)
       Maximum Pressure Error:  0.63E-02 on Mesh   1 at (  25  25   1)
       ScaRC: iterations    41, residual  0.84E-08, convergence rate   0.63E+00
       ---------------------------------------------------------------
       Mesh    1
       Max CFL number:  0.84E-01 at (  13,  12,   1)
       Max divergence: -0.13E-02 at (  15,  11,   1)
       Min divergence: -0.14E-02 at (  25,  25,   1)
       Max VN number:   0.13E-01 at (  11,  19,   2)
       Radiation Loss to Boundaries:        -0.162 kW
       Mesh    2
       Max CFL number:  0.17E-01 at (  13,  15,   2)
       Max divergence:  0.11E-05 at (   4,  22,   3)
       Min divergence: -0.12E-05 at (  21,  24,   2)
       Max VN number:   0.12E-01 at (  22,   2,   7)
       Mesh    3
       Max CFL number:  0.18E-01 at (   8,   2,   5)
       Max divergence:  0.13E-05 at (  16,   4,   2)
       Min divergence: -0.11E-05 at (   4,  14,   7)
       Max VN number:   0.12E-01 at (   4,  14,   7)
       Mesh    4
       Max CFL number:  0.17E-01 at (   2,  13,   9)
       Max divergence:  0.11E-05 at (  21,  16,   9)
       Min divergence: -0.12E-05 at (  21,  13,   2)
       Max VN number:   0.12E-01 at (   8,   2,   7)
 
       Time Step      50   February 19, 2020  19:24:17
       Step Size:    0.204E+00 s, Total Time:      10.21 s
       Pressure Iterations:      1
       Maximum Velocity Error:  0.45E-01 on Mesh   1 at (   1  26   1)
       Maximum Pressure Error:  0.53E+00 on Mesh   1 at (   1   1   1)
       ScaRC: iterations    47, residual  0.84E-08, convergence rate   0.64E+00
       ---------------------------------------------------------------
       Mesh    1
       Max CFL number:  0.84E-01 at (  12,  13,   1)
       Max divergence:  0.87E-02 at (  15,  11,   1)
       Min divergence:  0.85E-02 at (  25,  25,   1)
       Max VN number:   0.17E-01 at (  11,  11,   1)
       Radiation Loss to Boundaries:        -0.201 kW
       Mesh    2
       Max CFL number:  0.17E-01 at (  13,  15,   2)
       Max divergence: -0.52E-02 at (   2,  13,   3)
       Min divergence: -0.52E-02 at (   1,  15,   2)
       Max VN number:   0.12E-01 at (  22,   2,   7)
       Mesh    3
       Max CFL number:  0.18E-01 at (   8,   2,   5)
       Max divergence:  0.13E-05 at (  16,   4,   2)
       Min divergence: -0.11E-05 at (   4,  14,   7)
       Max VN number:   0.12E-01 at (   4,  14,   7)
       Mesh    4
       Max CFL number:  0.17E-01 at (   2,  13,   9)
       Max divergence: -0.52E-02 at (   5,  13,   2)
       Min divergence: -0.52E-02 at (   5,   6,  11)
       Max VN number:   0.12E-01 at (   8,   2,   7)
 
       Time Step      60   February 19, 2020  19:24:18
       Step Size:    0.204E+00 s, Total Time:      12.25 s
       Pressure Iterations:      1
       Maximum Velocity Error:  0.25E-01 on Mesh   1 at (  26  25  12)
       Maximum Pressure Error:  0.16E-01 on Mesh   1 at (  25  25  12)
       ScaRC: iterations    47, residual  0.98E-08, convergence rate   0.63E+00
       ---------------------------------------------------------------
       Mesh    1
       Max CFL number:  0.33E+00 at (  25,  15,   1)
       Max divergence:  0.14E-01 at (  25,  15,   1)
       Min divergence:  0.68E-03 at (  25,  25,   1)
       Max VN number:   0.18E+00 at (  25,  15,   1)
       Radiation Loss to Boundaries:        -0.082 kW
       Mesh    2
       Max CFL number:  0.35E+00 at (   1,  15,   1)
       Max divergence: -0.87E-03 at (   2,  14,   1)
       Min divergence: -0.15E-02 at (   1,  14,   1)
       Max VN number:   0.12E+00 at (   3,  15,   1)
       Radiation Loss to Boundaries:        -0.082 kW
       Mesh    3
       Max CFL number:  0.27E-01 at (  24,  15,   8)
       Max divergence:  0.13E-05 at (  16,   4,   2)
       Min divergence: -0.11E-05 at (   4,  14,   7)
       Max VN number:   0.11E-01 at (   4,  14,   7)
       Mesh    4
       Max CFL number:  0.35E-01 at (   5,   1,   1)
       Max divergence: -0.11E-02 at (   8,   2,   7)
       Min divergence: -0.11E-02 at (   2,  25,   1)
       Max VN number:   0.11E-01 at (   5,  24,   8)
       Radiation Loss to Boundaries:        -0.079 kW
 
       Time Step      70   February 19, 2020  19:24:18
       Step Size:    0.204E+00 s, Total Time:      14.29 s
       Pressure Iterations:      1
       Maximum Velocity Error:  0.89E-02 on Mesh   1 at (  26  25   1)
       Maximum Pressure Error:  0.15E-01 on Mesh   1 at (  25  13   1)
       ScaRC: iterations    47, residual  0.42E-08, convergence rate   0.63E+00
       ---------------------------------------------------------------
       Mesh    1
       Max CFL number:  0.18E+00 at (  25,  13,   4)
       Max divergence:  0.53E-02 at (  25,  11,   1)
       Min divergence: -0.85E-02 at (  25,  15,  10)
       Max VN number:   0.94E-01 at (  25,  16,   1)
       Radiation Loss to Boundaries:        -0.093 kW
       Mesh    2
       Max CFL number:  0.17E+00 at (   1,  15,  10)
       Max divergence: -0.33E-03 at (   1,  15,   1)
       Min divergence: -0.89E-03 at (   1,  13,   1)
       Max VN number:   0.80E-01 at (   1,  15,   1)
       Radiation Loss to Boundaries:        -0.097 kW
       Mesh    3
       Max CFL number:  0.23E-01 at (   1,  22,   4)
       Max divergence:  0.12E-05 at (  16,   4,   2)
       Min divergence: -0.11E-05 at (   4,  14,   7)
       Max VN number:   0.11E-01 at (   4,  14,   7)
       Mesh    4
       Max CFL number:  0.18E-01 at (   2,  18,   6)
       Max divergence: -0.55E-03 at (   3,  14,   6)
       Min divergence: -0.59E-03 at (   2,  25,   1)
       Max VN number:   0.11E-01 at (   5,  24,   8)
       Radiation Loss to Boundaries:        -0.093 kW
 
       Time Step      80   February 19, 2020  19:24:19
       Step Size:    0.204E+00 s, Total Time:      16.33 s
       Pressure Iterations:      1
       Maximum Velocity Error:  0.33E-01 on Mesh   3 at (   0   2  12)
       Maximum Pressure Error:  0.10E+00 on Mesh   1 at (  25  15  10)
       ScaRC: iterations    47, residual  0.57E-08, convergence rate   0.63E+00
       ---------------------------------------------------------------
       Mesh    1
       Max CFL number:  0.39E+00 at (  25,  13,   7)
       Max divergence:  0.38E-02 at (  25,  11,   1)
       Min divergence: -0.80E-02 at (  25,  15,   8)
       Max VN number:   0.12E+00 at (  25,  13,   6)
       Radiation Loss to Boundaries:        -0.085 kW
       Mesh    2
       Max CFL number:  0.35E+00 at (   1,  13,   4)
       Max divergence:  0.68E-03 at (   2,  14,   1)
       Min divergence: -0.58E-03 at (   1,  14,   6)
       Max VN number:   0.92E-01 at (   2,  15,  10)
       Radiation Loss to Boundaries:        -0.086 kW
       Mesh    3
       Max CFL number:  0.69E-01 at (  25,  11,   2)
       Max divergence: -0.19E-02 at (  25,  14,   9)
       Min divergence: -0.39E-02 at (  25,  11,   2)
       Max VN number:   0.35E-01 at (  25,  15,   8)
       Radiation Loss to Boundaries:        -0.059 kW
       Mesh    4
       Max CFL number:  0.12E+00 at (   2,  11,   1)
       Max divergence:  0.66E-03 at (   2,  14,   8)
       Min divergence: -0.66E-03 at (   1,  14,   8)
       Max VN number:   0.44E-01 at (   1,  14,   8)
       Radiation Loss to Boundaries:        -0.091 kW
 
       Time Step      90   February 19, 2020  19:24:19
       Step Size:    0.204E+00 s, Total Time:      18.37 s
       Pressure Iterations:      1
       Maximum Velocity Error:  0.17E-01 on Mesh   3 at (   0   2  12)
       Maximum Pressure Error:  0.10E+00 on Mesh   1 at (  25  14   1)
       ScaRC: iterations    47, residual  0.77E-08, convergence rate   0.63E+00
       ---------------------------------------------------------------
       Mesh    1
       Max CFL number:  0.38E+00 at (  25,  13,  10)
       Max divergence:  0.97E-02 at (  25,  15,   1)
       Min divergence: -0.29E-02 at (  25,  13,   9)
       Max VN number:   0.13E+00 at (  25,  13,   9)
       Radiation Loss to Boundaries:        -0.086 kW
       Mesh    2
       Max CFL number:  0.51E+00 at (   1,  13,   7)
       Max divergence:  0.13E-03 at (   1,  15,  10)
       Min divergence: -0.17E-02 at (   1,  14,   8)
       Max VN number:   0.17E+00 at (   1,  13,   7)
       Radiation Loss to Boundaries:        -0.088 kW
       Mesh    3
       Max CFL number:  0.16E+00 at (  25,  11,  10)
       Max divergence: -0.44E-05 at (  24,  13,   1)
       Min divergence: -0.73E-02 at (  25,  11,  10)
       Max VN number:   0.92E-01 at (  25,  15,   8)
       Radiation Loss to Boundaries:        -0.090 kW
       Mesh    4
       Max CFL number:  0.29E+00 at (   1,  15,  10)
       Max divergence:  0.30E-03 at (   2,  12,   9)
       Min divergence: -0.16E-02 at (   1,  14,   8)
       Max VN number:   0.14E+00 at (   1,  13,   9)
       Radiation Loss to Boundaries:        -0.092 kW
 
       Time Step     100   February 19, 2020  19:24:20
       Step Size:    0.204E+00 s, Total Time:      20.41 s
       Pressure Iterations:      4
       Maximum Velocity Error:  0.82E-01 on Mesh   3 at (   0   2   1)
       Maximum Pressure Error:  0.37E+01 on Mesh   1 at (  25  13   8)
       ScaRC: iterations    48, residual  0.34E-08, convergence rate   0.61E+00
       ---------------------------------------------------------------
       Mesh    1
       Max CFL number:  0.38E+00 at (  25,  13,  11)
       Max divergence:  0.11E-01 at (  25,  13,   1)
       Min divergence: -0.54E-02 at (  25,  12,  10)
       Max VN number:   0.18E+00 at (  25,  13,  11)
       Radiation Loss to Boundaries:        -0.072 kW
       Mesh    2
       Max CFL number:  0.56E+00 at (   2,  13,   9)
       Max divergence:  0.62E-02 at (   1,  14,   8)
       Min divergence:  0.43E-02 at (   1,  13,  10)
       Max VN number:   0.26E+00 at (   1,  12,  10)
       Radiation Loss to Boundaries:        -0.077 kW
       Mesh    3
       Max CFL number:  0.49E+00 at (   1,   6,   1)
       Max divergence:  0.25E-01 at (   1,   6,   1)
       Min divergence: -0.78E-02 at (  25,  15,  10)
       Max VN number:   0.27E+00 at (   1,   6,   1)
       Radiation Loss to Boundaries:        -0.075 kW
       Mesh    4
       Max CFL number:  0.37E+00 at (   1,  15,  10)
       Max divergence:  0.61E-02 at (   2,  15,   9)
       Min divergence:  0.41E-02 at (   1,  15,  10)
       Max VN number:   0.33E+00 at (   1,  14,  10)
       Radiation Loss to Boundaries:        -0.074 kW
 
       Time Step     147   February 19, 2020  19:24:24
       Step Size:    0.198E+00 s, Total Time:      30.00 s
       Pressure Iterations:      1
       Maximum Velocity Error:  0.27E-01 on Mesh   3 at (   0  25   1)
       Maximum Pressure Error:  0.23E+00 on Mesh   2 at (   2  15  12)
       ScaRC: iterations    47, residual  0.57E-08, convergence rate   0.62E+00
       ---------------------------------------------------------------
       Mesh    1
       Max CFL number:  0.35E+00 at (  25,  15,   6)
       Max divergence:  0.15E-03 at (  25,  15,  10)
       Min divergence: -0.32E-03 at (  22,  14,  10)
       Max VN number:   0.22E+00 at (  25,  15,   1)
       Radiation Loss to Boundaries:         0.009 kW
       Mesh    2
       Max CFL number:  0.45E+00 at (   6,  12,   5)
       Max divergence:  0.20E-03 at (   1,  11,  10)
       Min divergence: -0.24E-03 at (  11,  17,  12)
       Max VN number:   0.18E+00 at (   8,  15,  12)
       Radiation Loss to Boundaries:        -0.003 kW
       Mesh    3
       Max CFL number:  0.41E+00 at (  20,  14,   1)
       Max divergence:  0.19E-03 at (  20,  14,   1)
       Min divergence: -0.13E-03 at (  24,  11,   2)
       Max VN number:   0.17E+00 at (  24,  11,   1)
       Radiation Loss to Boundaries:         0.006 kW
       Mesh    4
       Max CFL number:  0.41E+00 at (   2,  12,   8)
       Max divergence:  0.20E-03 at (   2,  14,   2)
       Min divergence: -0.13E-03 at (   2,  15,   1)
       Max VN number:   0.18E+00 at (   2,  12,   8)
       Radiation Loss to Boundaries:         0.003 kW
 


 DEVICE Activation Times

   4  door 1                                                          10.0 s
   5  door 2                                                          15.1 s
   6  door 3                                                          20.0 s


 Time Stepping Wall Clock Time (s):       10.010
 Total Elapsed Wall Clock Time (s):       12.504

STOP: FDS completed successfully (CHID: zone_break_slow_scarc)
