
 Fire Dynamics Simulator

 Current Date     : June 26, 2020  16:19:45
 Revision         : -AMG
 Revision Date    : Fri Jun 26 15:19:14 2020 +0200
 Compiler         : Intel ifort 19.0.5.281
 Compilation Date : Jun 26, 2020 15:25:32

 MPI Enabled;    Number of MPI Processes:       1
 OpenMP Enabled; Number of OpenMP Threads:      4

 MPI version: 3.1
 MPI library version: Intel(R) MPI Library 2018 Update 1 for Linux* OS


 Job TITLE        : Ribbed channel flow at Re_D=40,000
 Job ID string    : ribbed_channel_40


 Grid Dimensions, Mesh     1

   Cells in the X Direction            40
   Cells in the Y Direction            12
   Cells in the Z Direction            12
   Number of Grid Cells              5760


 Physical Dimensions, Mesh     1

   Length (m)                       1.000
   Width  (m)                       0.300
   Height (m)                       0.300
   Initial Time Step (s)            0.024

Total Number of Grid Cells          5760


 Miscellaneous Parameters

   Simulation Start Time (s)          0.0
   Simulation End Time (s)          100.0
   LES Calculation
   Eddy Viscosity:           Deardorff Model (C_DEARDORFF = 0.10)
   Near-wall Eddy Viscosity: Smagorinsky with Van Driest damping (C_SMAGORINSKY = 0.20)
   Turbulent Prandtl Number:         0.50
   Turbulent Schmidt Number:         0.50
   Ambient Temperature (C):         20.00


 Mass Fraction Transformation Matrix to Convert Species Mixtures (Columns) to Primitive Species (Rows)

                         AIR     
   AIR                   1.000000


 Primitive Species Information

   AIR
   Gas Species
   Molecular Weight (g/mol)            28.01340
   Ambient Density (kg/m^3)            1.165
   Enthalpy of Formation (J/kg)        0.00E+00


 Tracked (Lumped) Species Information

   AIR
   Molecular Weight (g/mol)            28.01340
   Ambient Density (kg/m^3)            1.165
   Initial Mass Fraction               1.000
   Enthalpy of Formation (J/kg)      0.00E+00

   Sub Species                    Mass Fraction     Mole Fraction
   AIR                            1.000000E+00      1.000000E+00
 
     Viscosity (kg/m/s) Ambient,  293 K:  1.20E-05
                                  500 K:  1.20E-05
                                 1000 K:  1.20E-05
                                 1500 K:  1.20E-05
   Therm. Cond. (W/m/K) Ambient,  293 K:  1.76E-02
                                  500 K:  1.76E-02
                                 1000 K:  1.76E-02
                                 1500 K:  1.76E-02
        Enthalpy (J/kg) Ambient,  293 K:  3.05E+05
                                  500 K:  5.19E+05
                                 1000 K:  1.04E+06
                                 1500 K:  1.56E+06
    Spec. Heat (J/kg/K) Ambient,  293 K:  1.04E+03
                                  500 K:  1.04E+03
                                 1000 K:  1.04E+03
                                 1500 K:  1.04E+03
   Diff. Coeff. (m^2/s) Ambient,  293 K:  1.99E-05
                                  500 K:  4.93E-05
                                 1000 K:  1.57E-04
                                 1500 K:  3.07E-04


 Material Information


 Surface Conditions

   0 INERT

   1 wall (DEFAULT)

   2 OPEN
     Passive Vent to Atmosphere

   3 MIRROR
     Symmetry Plane

   4 INTERPOLATED

   5 PERIODIC

   6 HVAC

   7 MASSLESS TRACER

   8 DROPLET

   9 EVACUATION_OUTFLOW
     Normal Velocity (m/s)         0.000

  10 MASSLESS TARGET

  11 PERIODIC WIND


 Device Coordinates

     1 Coords:     -0.387500      0.000000      0.150000, Make: null, ID: Ub, Quantity: U-VELOCITY
     2 Coords:     -0.387500      0.000000      0.012500, Make: null, ID: u_strm_bot, Quantity: U-VELOCITY
     3 Coords:     -0.362500      0.000000      0.012500, Make: null, ID: u_strm_bot, Quantity: U-VELOCITY
     4 Coords:     -0.337500      0.000000      0.012500, Make: null, ID: u_strm_bot, Quantity: U-VELOCITY
     5 Coords:     -0.312500      0.000000      0.012500, Make: null, ID: u_strm_bot, Quantity: U-VELOCITY
     6 Coords:     -0.287500      0.000000      0.012500, Make: null, ID: u_strm_bot, Quantity: U-VELOCITY
     7 Coords:     -0.262500      0.000000      0.012500, Make: null, ID: u_strm_bot, Quantity: U-VELOCITY
     8 Coords:     -0.237500      0.000000      0.012500, Make: null, ID: u_strm_bot, Quantity: U-VELOCITY
     9 Coords:     -0.212500      0.000000      0.012500, Make: null, ID: u_strm_bot, Quantity: U-VELOCITY
    10 Coords:     -0.187500      0.000000      0.012500, Make: null, ID: u_strm_bot, Quantity: U-VELOCITY
    11 Coords:     -0.162500      0.000000      0.012500, Make: null, ID: u_strm_bot, Quantity: U-VELOCITY
    12 Coords:     -0.137500      0.000000      0.012500, Make: null, ID: u_strm_bot, Quantity: U-VELOCITY
    13 Coords:     -0.112500      0.000000      0.012500, Make: null, ID: u_strm_bot, Quantity: U-VELOCITY
    14 Coords:     -0.087500      0.000000      0.012500, Make: null, ID: u_strm_bot, Quantity: U-VELOCITY
    15 Coords:     -0.062500      0.000000      0.012500, Make: null, ID: u_strm_bot, Quantity: U-VELOCITY
    16 Coords:     -0.037500      0.000000      0.012500, Make: null, ID: u_strm_bot, Quantity: U-VELOCITY
    17 Coords:     -0.012500      0.000000      0.012500, Make: null, ID: u_strm_bot, Quantity: U-VELOCITY
    18 Coords:      0.012500      0.000000      0.012500, Make: null, ID: u_strm_bot, Quantity: U-VELOCITY
    19 Coords:      0.037500      0.000000      0.012500, Make: null, ID: u_strm_bot, Quantity: U-VELOCITY
    20 Coords:      0.062500      0.000000      0.012500, Make: null, ID: u_strm_bot, Quantity: U-VELOCITY
    21 Coords:      0.087500      0.000000      0.012500, Make: null, ID: u_strm_bot, Quantity: U-VELOCITY
    22 Coords:      0.112500      0.000000      0.012500, Make: null, ID: u_strm_bot, Quantity: U-VELOCITY
    23 Coords:      0.137500      0.000000      0.012500, Make: null, ID: u_strm_bot, Quantity: U-VELOCITY
    24 Coords:      0.162500      0.000000      0.012500, Make: null, ID: u_strm_bot, Quantity: U-VELOCITY
    25 Coords:      0.187500      0.000000      0.012500, Make: null, ID: u_strm_bot, Quantity: U-VELOCITY
    26 Coords:      0.212500      0.000000      0.012500, Make: null, ID: u_strm_bot, Quantity: U-VELOCITY
    27 Coords:      0.237500      0.000000      0.012500, Make: null, ID: u_strm_bot, Quantity: U-VELOCITY
    28 Coords:      0.262500      0.000000      0.012500, Make: null, ID: u_strm_bot, Quantity: U-VELOCITY
    29 Coords:      0.287500      0.000000      0.012500, Make: null, ID: u_strm_bot, Quantity: U-VELOCITY
    30 Coords:      0.312500      0.000000      0.012500, Make: null, ID: u_strm_bot, Quantity: U-VELOCITY
    31 Coords:      0.337500      0.000000      0.012500, Make: null, ID: u_strm_bot, Quantity: U-VELOCITY
    32 Coords:      0.362500      0.000000      0.012500, Make: null, ID: u_strm_bot, Quantity: U-VELOCITY
    33 Coords:      0.387500      0.000000      0.012500, Make: null, ID: u_strm_bot, Quantity: U-VELOCITY
    34 Coords:      0.412500      0.000000      0.012500, Make: null, ID: u_strm_bot, Quantity: U-VELOCITY
    35 Coords:      0.437500      0.000000      0.012500, Make: null, ID: u_strm_bot, Quantity: U-VELOCITY
    36 Coords:      0.462500      0.000000      0.012500, Make: null, ID: u_strm_bot, Quantity: U-VELOCITY
    37 Coords:      0.487500      0.000000      0.012500, Make: null, ID: u_strm_bot, Quantity: U-VELOCITY
    38 Coords:      0.512500      0.000000      0.012500, Make: null, ID: u_strm_bot, Quantity: U-VELOCITY
    39 Coords:      0.537500      0.000000      0.012500, Make: null, ID: u_strm_bot, Quantity: U-VELOCITY
    40 Coords:      0.562500      0.000000      0.012500, Make: null, ID: u_strm_bot, Quantity: U-VELOCITY
    41 Coords:      0.587500      0.000000      0.012500, Make: null, ID: u_strm_bot, Quantity: U-VELOCITY
    42 Coords:     -0.037500      0.000000      0.112500, Make: null, ID: u_strm_rib, Quantity: U-VELOCITY
    43 Coords:     -0.012500      0.000000      0.112500, Make: null, ID: u_strm_rib, Quantity: U-VELOCITY
    44 Coords:      0.012500      0.000000      0.112500, Make: null, ID: u_strm_rib, Quantity: U-VELOCITY
    45 Coords:      0.037500      0.000000      0.112500, Make: null, ID: u_strm_rib, Quantity: U-VELOCITY
    46 Coords:     -0.387500      0.000000      0.012500, Make: null, ID: mu_strm_bot, Quantity: VISCOSITY
    47 Coords:     -0.362500      0.000000      0.012500, Make: null, ID: mu_strm_bot, Quantity: VISCOSITY
    48 Coords:     -0.337500      0.000000      0.012500, Make: null, ID: mu_strm_bot, Quantity: VISCOSITY
    49 Coords:     -0.312500      0.000000      0.012500, Make: null, ID: mu_strm_bot, Quantity: VISCOSITY
    50 Coords:     -0.287500      0.000000      0.012500, Make: null, ID: mu_strm_bot, Quantity: VISCOSITY
    51 Coords:     -0.262500      0.000000      0.012500, Make: null, ID: mu_strm_bot, Quantity: VISCOSITY
    52 Coords:     -0.237500      0.000000      0.012500, Make: null, ID: mu_strm_bot, Quantity: VISCOSITY
    53 Coords:     -0.212500      0.000000      0.012500, Make: null, ID: mu_strm_bot, Quantity: VISCOSITY
    54 Coords:     -0.187500      0.000000      0.012500, Make: null, ID: mu_strm_bot, Quantity: VISCOSITY
    55 Coords:     -0.162500      0.000000      0.012500, Make: null, ID: mu_strm_bot, Quantity: VISCOSITY
    56 Coords:     -0.137500      0.000000      0.012500, Make: null, ID: mu_strm_bot, Quantity: VISCOSITY
    57 Coords:     -0.112500      0.000000      0.012500, Make: null, ID: mu_strm_bot, Quantity: VISCOSITY
    58 Coords:     -0.087500      0.000000      0.012500, Make: null, ID: mu_strm_bot, Quantity: VISCOSITY
    59 Coords:     -0.062500      0.000000      0.012500, Make: null, ID: mu_strm_bot, Quantity: VISCOSITY
    60 Coords:     -0.037500      0.000000      0.012500, Make: null, ID: mu_strm_bot, Quantity: VISCOSITY
    61 Coords:     -0.012500      0.000000      0.012500, Make: null, ID: mu_strm_bot, Quantity: VISCOSITY
    62 Coords:      0.012500      0.000000      0.012500, Make: null, ID: mu_strm_bot, Quantity: VISCOSITY
    63 Coords:      0.037500      0.000000      0.012500, Make: null, ID: mu_strm_bot, Quantity: VISCOSITY
    64 Coords:      0.062500      0.000000      0.012500, Make: null, ID: mu_strm_bot, Quantity: VISCOSITY
    65 Coords:      0.087500      0.000000      0.012500, Make: null, ID: mu_strm_bot, Quantity: VISCOSITY
    66 Coords:      0.112500      0.000000      0.012500, Make: null, ID: mu_strm_bot, Quantity: VISCOSITY
    67 Coords:      0.137500      0.000000      0.012500, Make: null, ID: mu_strm_bot, Quantity: VISCOSITY
    68 Coords:      0.162500      0.000000      0.012500, Make: null, ID: mu_strm_bot, Quantity: VISCOSITY
    69 Coords:      0.187500      0.000000      0.012500, Make: null, ID: mu_strm_bot, Quantity: VISCOSITY
    70 Coords:      0.212500      0.000000      0.012500, Make: null, ID: mu_strm_bot, Quantity: VISCOSITY
    71 Coords:      0.237500      0.000000      0.012500, Make: null, ID: mu_strm_bot, Quantity: VISCOSITY
    72 Coords:      0.262500      0.000000      0.012500, Make: null, ID: mu_strm_bot, Quantity: VISCOSITY
    73 Coords:      0.287500      0.000000      0.012500, Make: null, ID: mu_strm_bot, Quantity: VISCOSITY
    74 Coords:      0.312500      0.000000      0.012500, Make: null, ID: mu_strm_bot, Quantity: VISCOSITY
    75 Coords:      0.337500      0.000000      0.012500, Make: null, ID: mu_strm_bot, Quantity: VISCOSITY
    76 Coords:      0.362500      0.000000      0.012500, Make: null, ID: mu_strm_bot, Quantity: VISCOSITY
    77 Coords:      0.387500      0.000000      0.012500, Make: null, ID: mu_strm_bot, Quantity: VISCOSITY
    78 Coords:      0.412500      0.000000      0.012500, Make: null, ID: mu_strm_bot, Quantity: VISCOSITY
    79 Coords:      0.437500      0.000000      0.012500, Make: null, ID: mu_strm_bot, Quantity: VISCOSITY
    80 Coords:      0.462500      0.000000      0.012500, Make: null, ID: mu_strm_bot, Quantity: VISCOSITY
    81 Coords:      0.487500      0.000000      0.012500, Make: null, ID: mu_strm_bot, Quantity: VISCOSITY
    82 Coords:      0.512500      0.000000      0.012500, Make: null, ID: mu_strm_bot, Quantity: VISCOSITY
    83 Coords:      0.537500      0.000000      0.012500, Make: null, ID: mu_strm_bot, Quantity: VISCOSITY
    84 Coords:      0.562500      0.000000      0.012500, Make: null, ID: mu_strm_bot, Quantity: VISCOSITY
    85 Coords:      0.587500      0.000000      0.012500, Make: null, ID: mu_strm_bot, Quantity: VISCOSITY
    86 Coords:     -0.387500      0.000000      0.012500, Make: null, ID: urms_strm_bot, Quantity: U-VELOCITY
    87 Coords:     -0.362500      0.000000      0.012500, Make: null, ID: urms_strm_bot, Quantity: U-VELOCITY
    88 Coords:     -0.337500      0.000000      0.012500, Make: null, ID: urms_strm_bot, Quantity: U-VELOCITY
    89 Coords:     -0.312500      0.000000      0.012500, Make: null, ID: urms_strm_bot, Quantity: U-VELOCITY
    90 Coords:     -0.287500      0.000000      0.012500, Make: null, ID: urms_strm_bot, Quantity: U-VELOCITY
    91 Coords:     -0.262500      0.000000      0.012500, Make: null, ID: urms_strm_bot, Quantity: U-VELOCITY
    92 Coords:     -0.237500      0.000000      0.012500, Make: null, ID: urms_strm_bot, Quantity: U-VELOCITY
    93 Coords:     -0.212500      0.000000      0.012500, Make: null, ID: urms_strm_bot, Quantity: U-VELOCITY
    94 Coords:     -0.187500      0.000000      0.012500, Make: null, ID: urms_strm_bot, Quantity: U-VELOCITY
    95 Coords:     -0.162500      0.000000      0.012500, Make: null, ID: urms_strm_bot, Quantity: U-VELOCITY
    96 Coords:     -0.137500      0.000000      0.012500, Make: null, ID: urms_strm_bot, Quantity: U-VELOCITY
    97 Coords:     -0.112500      0.000000      0.012500, Make: null, ID: urms_strm_bot, Quantity: U-VELOCITY
    98 Coords:     -0.087500      0.000000      0.012500, Make: null, ID: urms_strm_bot, Quantity: U-VELOCITY
    99 Coords:     -0.062500      0.000000      0.012500, Make: null, ID: urms_strm_bot, Quantity: U-VELOCITY
   100 Coords:     -0.037500      0.000000      0.012500, Make: null, ID: urms_strm_bot, Quantity: U-VELOCITY
   101 Coords:     -0.012500      0.000000      0.012500, Make: null, ID: urms_strm_bot, Quantity: U-VELOCITY
   102 Coords:      0.012500      0.000000      0.012500, Make: null, ID: urms_strm_bot, Quantity: U-VELOCITY
   103 Coords:      0.037500      0.000000      0.012500, Make: null, ID: urms_strm_bot, Quantity: U-VELOCITY
   104 Coords:      0.062500      0.000000      0.012500, Make: null, ID: urms_strm_bot, Quantity: U-VELOCITY
   105 Coords:      0.087500      0.000000      0.012500, Make: null, ID: urms_strm_bot, Quantity: U-VELOCITY
   106 Coords:      0.112500      0.000000      0.012500, Make: null, ID: urms_strm_bot, Quantity: U-VELOCITY
   107 Coords:      0.137500      0.000000      0.012500, Make: null, ID: urms_strm_bot, Quantity: U-VELOCITY
   108 Coords:      0.162500      0.000000      0.012500, Make: null, ID: urms_strm_bot, Quantity: U-VELOCITY
   109 Coords:      0.187500      0.000000      0.012500, Make: null, ID: urms_strm_bot, Quantity: U-VELOCITY
   110 Coords:      0.212500      0.000000      0.012500, Make: null, ID: urms_strm_bot, Quantity: U-VELOCITY
   111 Coords:      0.237500      0.000000      0.012500, Make: null, ID: urms_strm_bot, Quantity: U-VELOCITY
   112 Coords:      0.262500      0.000000      0.012500, Make: null, ID: urms_strm_bot, Quantity: U-VELOCITY
   113 Coords:      0.287500      0.000000      0.012500, Make: null, ID: urms_strm_bot, Quantity: U-VELOCITY
   114 Coords:      0.312500      0.000000      0.012500, Make: null, ID: urms_strm_bot, Quantity: U-VELOCITY
   115 Coords:      0.337500      0.000000      0.012500, Make: null, ID: urms_strm_bot, Quantity: U-VELOCITY
   116 Coords:      0.362500      0.000000      0.012500, Make: null, ID: urms_strm_bot, Quantity: U-VELOCITY
   117 Coords:      0.387500      0.000000      0.012500, Make: null, ID: urms_strm_bot, Quantity: U-VELOCITY
   118 Coords:      0.412500      0.000000      0.012500, Make: null, ID: urms_strm_bot, Quantity: U-VELOCITY
   119 Coords:      0.437500      0.000000      0.012500, Make: null, ID: urms_strm_bot, Quantity: U-VELOCITY
   120 Coords:      0.462500      0.000000      0.012500, Make: null, ID: urms_strm_bot, Quantity: U-VELOCITY
   121 Coords:      0.487500      0.000000      0.012500, Make: null, ID: urms_strm_bot, Quantity: U-VELOCITY
   122 Coords:      0.512500      0.000000      0.012500, Make: null, ID: urms_strm_bot, Quantity: U-VELOCITY
   123 Coords:      0.537500      0.000000      0.012500, Make: null, ID: urms_strm_bot, Quantity: U-VELOCITY
   124 Coords:      0.562500      0.000000      0.012500, Make: null, ID: urms_strm_bot, Quantity: U-VELOCITY
   125 Coords:      0.587500      0.000000      0.012500, Make: null, ID: urms_strm_bot, Quantity: U-VELOCITY
   126 Coords:     -0.037500      0.000000      0.112500, Make: null, ID: urms_strm_rib, Quantity: U-VELOCITY
   127 Coords:     -0.012500      0.000000      0.112500, Make: null, ID: urms_strm_rib, Quantity: U-VELOCITY
   128 Coords:      0.012500      0.000000      0.112500, Make: null, ID: urms_strm_rib, Quantity: U-VELOCITY
   129 Coords:      0.037500      0.000000      0.112500, Make: null, ID: urms_strm_rib, Quantity: U-VELOCITY
   130 Coords:      0.000000      0.000000      0.112500, Make: null, ID: u_prof_rib, Quantity: U-VELOCITY
   131 Coords:      0.000000      0.000000      0.137500, Make: null, ID: u_prof_rib, Quantity: U-VELOCITY
   132 Coords:      0.000000      0.000000      0.162500, Make: null, ID: u_prof_rib, Quantity: U-VELOCITY
   133 Coords:      0.000000      0.000000      0.187500, Make: null, ID: u_prof_rib, Quantity: U-VELOCITY
   134 Coords:      0.000000      0.000000      0.212500, Make: null, ID: u_prof_rib, Quantity: U-VELOCITY
   135 Coords:      0.000000      0.000000      0.237500, Make: null, ID: u_prof_rib, Quantity: U-VELOCITY
   136 Coords:      0.000000      0.000000      0.262500, Make: null, ID: u_prof_rib, Quantity: U-VELOCITY
   137 Coords:      0.000000      0.000000      0.287500, Make: null, ID: u_prof_rib, Quantity: U-VELOCITY
   138 Coords:      0.000000      0.000000      0.112500, Make: null, ID: urms_prof_rib, Quantity: U-VELOCITY
   139 Coords:      0.000000      0.000000      0.137500, Make: null, ID: urms_prof_rib, Quantity: U-VELOCITY
   140 Coords:      0.000000      0.000000      0.162500, Make: null, ID: urms_prof_rib, Quantity: U-VELOCITY
   141 Coords:      0.000000      0.000000      0.187500, Make: null, ID: urms_prof_rib, Quantity: U-VELOCITY
   142 Coords:      0.000000      0.000000      0.212500, Make: null, ID: urms_prof_rib, Quantity: U-VELOCITY
   143 Coords:      0.000000      0.000000      0.237500, Make: null, ID: urms_prof_rib, Quantity: U-VELOCITY
   144 Coords:      0.000000      0.000000      0.262500, Make: null, ID: urms_prof_rib, Quantity: U-VELOCITY
   145 Coords:      0.000000      0.000000      0.287500, Make: null, ID: urms_prof_rib, Quantity: U-VELOCITY
   146 Coords:      0.000000      0.000000      0.112500, Make: null, ID: mu_prof_rib, Quantity: VISCOSITY
   147 Coords:      0.000000      0.000000      0.137500, Make: null, ID: mu_prof_rib, Quantity: VISCOSITY
   148 Coords:      0.000000      0.000000      0.162500, Make: null, ID: mu_prof_rib, Quantity: VISCOSITY
   149 Coords:      0.000000      0.000000      0.187500, Make: null, ID: mu_prof_rib, Quantity: VISCOSITY
   150 Coords:      0.000000      0.000000      0.212500, Make: null, ID: mu_prof_rib, Quantity: VISCOSITY
   151 Coords:      0.000000      0.000000      0.237500, Make: null, ID: mu_prof_rib, Quantity: VISCOSITY
   152 Coords:      0.000000      0.000000      0.262500, Make: null, ID: mu_prof_rib, Quantity: VISCOSITY
   153 Coords:      0.000000      0.000000      0.287500, Make: null, ID: mu_prof_rib, Quantity: VISCOSITY


 Slice File Information, Mesh     1

   Sampling Interval (s)             0.100

   1 Nodes:   0  40   7   7   0  12, Quantity: PRESSURE
   2 Nodes:   0  40   7   7   0  12, Quantity: VISCOSITY
   3 Nodes:   0  40   6   6   0  12, Quantity: VELOCITY
   4 Nodes:   0  40   6   6   0  12, Quantity: U-VELOCITY
   5 Nodes:   0  40   6   6   0  12, Quantity: V-VELOCITY
   6 Nodes:   0  40   6   6   0  12, Quantity: W-VELOCITY


 Boundary File Information

   Sampling Interval (s)             0.200

   1 Quantity: VISCOUS WALL UNITS
   2 Quantity: FRICTION VELOCITY
 
 

 Run Time Diagnostics

       Time Step       1   June 26, 2020  16:19:45
       Step Size:    0.190E-01 s, Total Time:       0.02 s
       Pressure Iterations:      3
       Maximum Velocity Error:  0.12E-01 on Mesh   1 at (  18   5   4)
       Maximum Pressure Error:  0.29E-11 on Mesh   1 at (  40   6   7)
       ---------------------------------------------------------------
       Max CFL number:  0.88E+00 at (  13,   7,   4)
       Max divergence:  0.37E-13 at (  40,   7,  12)
       Min divergence: -0.32E-13 at (   4,   9,   3)
       Max VN number:   0.14E+00 at (  23,   1,  12)
 
       Time Step       2   June 26, 2020  16:19:45
       Step Size:    0.154E-01 s, Total Time:       0.03 s
       Pressure Iterations:      5
       Maximum Velocity Error:  0.11E-01 on Mesh   1 at (  18   7   1)
       Maximum Pressure Error:  0.42E-11 on Mesh   1 at (  19   4   4)
       ---------------------------------------------------------------
       Max CFL number:  0.86E+00 at (  15,   5,   5)
       Max divergence:  0.39E-13 at (  19,   4,   4)
       Min divergence: -0.40E-13 at (  19,   4,   9)
       Max VN number:   0.12E+00 at (  23,   1,  12)
 
       Time Step       3   June 26, 2020  16:19:45
       Step Size:    0.154E-01 s, Total Time:       0.05 s
       Pressure Iterations:      4
       Maximum Velocity Error:  0.12E-01 on Mesh   1 at (  18   1   1)
       Maximum Pressure Error:  0.50E-11 on Mesh   1 at (  20  11   1)
       ---------------------------------------------------------------
       Max CFL number:  0.90E+00 at (  20,   9,   5)
       Max divergence:  0.26E-13 at (  20,   7,   5)
       Min divergence: -0.36E-13 at (  14,   9,   5)
       Max VN number:   0.14E+00 at (  18,   1,  12)
 
       Time Step       4   June 26, 2020  16:19:45
       Step Size:    0.154E-01 s, Total Time:       0.07 s
       Pressure Iterations:      3
       Maximum Velocity Error:  0.81E-02 on Mesh   1 at (  18  12   1)
       Maximum Pressure Error:  0.39E-11 on Mesh   1 at (  15   7   5)
       ---------------------------------------------------------------
       Max CFL number:  0.93E+00 at (  13,   7,   4)
       Max divergence:  0.26E-13 at (  40,  12,   1)
       Min divergence: -0.36E-13 at (  15,   1,   5)
       Max VN number:   0.15E+00 at (  14,  12,   5)
 
       Time Step       5   June 26, 2020  16:19:45
       Step Size:    0.154E-01 s, Total Time:       0.08 s
       Pressure Iterations:      2
       Maximum Velocity Error:  0.58E-02 on Mesh   1 at (  16   5   4)
       Maximum Pressure Error:  0.43E-11 on Mesh   1 at (  15   7   5)
       ---------------------------------------------------------------
       Max CFL number:  0.92E+00 at (  13,   3,   4)
       Max divergence:  0.24E-13 at (  40,   6,   7)
       Min divergence: -0.33E-13 at (  15,   6,   5)
       Max VN number:   0.16E+00 at (  13,  12,   4)
 
       Time Step       6   June 26, 2020  16:19:45
       Step Size:    0.154E-01 s, Total Time:       0.10 s
       Pressure Iterations:      1
       Maximum Velocity Error:  0.12E-01 on Mesh   1 at (  17   5   4)
       Maximum Pressure Error:  0.30E-11 on Mesh   1 at (  15   6   5)
       ---------------------------------------------------------------
       Max CFL number:  0.88E+00 at (  13,   2,   4)
       Max divergence:  0.22E-13 at (  40,   6,  12)
       Min divergence: -0.25E-13 at (  40,  10,   4)
       Max VN number:   0.17E+00 at (  13,  12,   4)
 
       Time Step       7   June 26, 2020  16:19:45
       Step Size:    0.154E-01 s, Total Time:       0.11 s
       Pressure Iterations:      2
       Maximum Velocity Error:  0.60E-02 on Mesh   1 at (  18   5   4)
       Maximum Pressure Error:  0.33E-11 on Mesh   1 at (  14   4   2)
       ---------------------------------------------------------------
       Max CFL number:  0.85E+00 at (  13,   2,   4)
       Max divergence:  0.29E-13 at (  40,   6,   6)
       Min divergence: -0.22E-13 at (   8,   6,   8)
       Max VN number:   0.17E+00 at (  13,   1,   4)
 
       Time Step       8   June 26, 2020  16:19:45
       Step Size:    0.154E-01 s, Total Time:       0.13 s
       Pressure Iterations:      2
       Maximum Velocity Error:  0.53E-02 on Mesh   1 at (  15   5   4)
       Maximum Pressure Error:  0.33E-11 on Mesh   1 at (  40   7   7)
       ---------------------------------------------------------------
       Max CFL number:  0.84E+00 at (  22,   9,   6)
       Max divergence:  0.35E-13 at (   1,   7,   6)
       Min divergence: -0.27E-13 at (  13,   4,   5)
       Max VN number:   0.16E+00 at (  13,   1,   4)
 
       Time Step       9   June 26, 2020  16:19:45
       Step Size:    0.154E-01 s, Total Time:       0.14 s
       Pressure Iterations:      2
       Maximum Velocity Error:  0.35E-02 on Mesh   1 at (  18   5   4)
       Maximum Pressure Error:  0.29E-11 on Mesh   1 at (  40   3  10)
       ---------------------------------------------------------------
       Max CFL number:  0.85E+00 at (  22,   9,   6)
       Max divergence:  0.27E-13 at (   1,   7,  11)
       Min divergence: -0.23E-13 at (  35,  10,   9)
       Max VN number:   0.15E+00 at (  13,   1,   4)
 
       Time Step      10   June 26, 2020  16:19:45
       Step Size:    0.154E-01 s, Total Time:       0.16 s
       Pressure Iterations:      1
       Maximum Velocity Error:  0.10E-01 on Mesh   1 at (  18   6   4)
       Maximum Pressure Error:  0.34E-11 on Mesh   1 at (   1  12  12)
       ---------------------------------------------------------------
       Max CFL number:  0.84E+00 at (  23,   9,   6)
       Max divergence:  0.31E-13 at (   1,  11,   1)
       Min divergence: -0.27E-13 at (  12,   9,   4)
       Max VN number:   0.15E+00 at (  13,   1,   4)
 
       Time Step      20   June 26, 2020  16:19:45
       Step Size:    0.154E-01 s, Total Time:       0.31 s
       Pressure Iterations:      1
       Maximum Velocity Error:  0.11E-01 on Mesh   1 at (   0   4   9)
       Maximum Pressure Error:  0.36E-11 on Mesh   1 at (  15   6   5)
       ---------------------------------------------------------------
       Max CFL number:  0.84E+00 at (  28,   8,   6)
       Max divergence:  0.28E-13 at (   1,  11,  12)
       Min divergence: -0.27E-13 at (  14,   9,   5)
       Max VN number:   0.15E+00 at (  13,   1,   4)
 
       Time Step      30   June 26, 2020  16:19:45
       Step Size:    0.154E-01 s, Total Time:       0.47 s
       Pressure Iterations:      2
       Maximum Velocity Error:  0.78E-02 on Mesh   1 at (   0   9   9)
       Maximum Pressure Error:  0.41E-11 on Mesh   1 at (  15  12   5)
       ---------------------------------------------------------------
       Max CFL number:  0.88E+00 at (  32,   5,   7)
       Max divergence:  0.24E-13 at (   1,   3,   6)
       Min divergence: -0.36E-13 at (  14,   4,   5)
       Max VN number:   0.17E+00 at (  14,   1,   4)
 
       Time Step      40   June 26, 2020  16:19:45
       Step Size:    0.154E-01 s, Total Time:       0.62 s
       Pressure Iterations:      3
       Maximum Velocity Error:  0.64E-02 on Mesh   1 at (   0   9   8)
       Maximum Pressure Error:  0.44E-11 on Mesh   1 at (  14   5   5)
       ---------------------------------------------------------------
       Max CFL number:  0.93E+00 at (  18,   9,   7)
       Max divergence:  0.27E-13 at (  40,   6,   8)
       Min divergence: -0.92E-13 at (  14,   6,   5)
       Max VN number:   0.20E+00 at (  14,  10,   4)
 
       Time Step      50   June 26, 2020  16:19:46
       Step Size:    0.138E-01 s, Total Time:       0.77 s
       Pressure Iterations:      2
       Maximum Velocity Error:  0.78E-02 on Mesh   1 at (   0   6   7)
       Maximum Pressure Error:  0.60E-11 on Mesh   1 at (  15   1   5)
       ---------------------------------------------------------------
       Max CFL number:  0.90E+00 at (  20,   9,   7)
       Max divergence:  0.54E-13 at (  17,  12,   6)
       Min divergence: -0.98E-13 at (  14,  11,   5)
       Max VN number:   0.19E+00 at (  14,   3,   4)
 
       Time Step      60   June 26, 2020  16:19:46
       Step Size:    0.138E-01 s, Total Time:       0.91 s
       Pressure Iterations:      2
       Maximum Velocity Error:  0.72E-02 on Mesh   1 at (   0   9   8)
       Maximum Pressure Error:  0.73E-11 on Mesh   1 at (  15   6   5)
       ---------------------------------------------------------------
       Max CFL number:  0.96E+00 at (  18,   6,   7)
       Max divergence:  0.26E-13 at (  24,   9,   7)
       Min divergence: -0.43E-13 at (  15,   1,   5)
       Max VN number:   0.20E+00 at (  14,   4,   4)
 
       Time Step      70   June 26, 2020  16:19:46
       Step Size:    0.123E-01 s, Total Time:       1.04 s
       Pressure Iterations:      2
       Maximum Velocity Error:  0.62E-02 on Mesh   1 at (   0   8   9)
       Maximum Pressure Error:  0.65E-11 on Mesh   1 at (  25   4   8)
       ---------------------------------------------------------------
       Max CFL number:  0.89E+00 at (  29,   8,   7)
       Max divergence:  0.33E-13 at (  25,   5,  10)
       Min divergence: -0.45E-13 at (  25,   6,   8)
       Max VN number:   0.14E+00 at (  14,   1,   5)
 
       Time Step      80   June 26, 2020  16:19:46
       Step Size:    0.123E-01 s, Total Time:       1.16 s
       Pressure Iterations:      2
       Maximum Velocity Error:  0.88E-02 on Mesh   1 at (   0  10   8)
       Maximum Pressure Error:  0.63E-11 on Mesh   1 at (  30   6   8)
       ---------------------------------------------------------------
       Max CFL number:  0.95E+00 at (  25,   6,   8)
       Max divergence:  0.48E-13 at (  30,   7,   7)
       Min divergence: -0.37E-13 at (  30,   7,   8)
       Max VN number:   0.13E+00 at (  14,   3,   4)
 
       Time Step      90   June 26, 2020  16:19:46
       Step Size:    0.123E-01 s, Total Time:       1.29 s
       Pressure Iterations:      2
       Maximum Velocity Error:  0.86E-02 on Mesh   1 at (   0  10   8)
       Maximum Pressure Error:  0.84E-11 on Mesh   1 at (  25   6   8)
       ---------------------------------------------------------------
       Max CFL number:  0.99E+00 at (  25,   6,   8)
       Max divergence:  0.64E-13 at (  25,   7,   8)
       Min divergence: -0.47E-13 at (  25,   7,   7)
       Max VN number:   0.16E+00 at (  14,  10,   4)
 
       Time Step     100   June 26, 2020  16:19:46
       Step Size:    0.110E-01 s, Total Time:       1.40 s
       Pressure Iterations:      2
       Maximum Velocity Error:  0.12E-01 on Mesh   1 at (  41   8   7)
       Maximum Pressure Error:  0.84E-11 on Mesh   1 at (  20   6   8)
       ---------------------------------------------------------------
       Max CFL number:  0.88E+00 at (  23,   9,   8)
       Max divergence:  0.43E-13 at (  26,   7,   8)
       Min divergence: -0.51E-13 at (  20,   6,   8)
       Max VN number:   0.13E+00 at (  14,   2,   4)
 
       Time Step     200   June 26, 2020  16:19:48
       Step Size:    0.980E-02 s, Total Time:       2.41 s
       Pressure Iterations:      3
       Maximum Velocity Error:  0.10E-01 on Mesh   1 at (   0   5   9)
       Maximum Pressure Error:  0.73E-11 on Mesh   1 at (  25   7   7)
       ---------------------------------------------------------------
       Max CFL number:  0.88E+00 at (  22,   7,   8)
       Max divergence:  0.38E-13 at (  25,   7,   8)
       Min divergence: -0.37E-13 at (   1,   4,  11)
       Max VN number:   0.12E+00 at (  14,   2,   4)
 
       Time Step     300   June 26, 2020  16:19:50
       Step Size:    0.980E-02 s, Total Time:       3.39 s
       Pressure Iterations:      4
       Maximum Velocity Error:  0.71E-02 on Mesh   1 at (   0   7   7)
       Maximum Pressure Error:  0.11E-10 on Mesh   1 at (  40   6   7)
       ---------------------------------------------------------------
       Max CFL number:  0.86E+00 at (  30,   6,   9)
       Max divergence:  0.42E-13 at (  40,   6,   7)
       Min divergence: -0.42E-13 at (  30,   4,   9)
       Max VN number:   0.10E+00 at (   1,   6,   4)
 
       Time Step     400   June 26, 2020  16:19:52
       Step Size:    0.980E-02 s, Total Time:       4.37 s
       Pressure Iterations:      4
       Maximum Velocity Error:  0.12E-01 on Mesh   1 at (   0  10   5)
       Maximum Pressure Error:  0.12E-10 on Mesh   1 at (  35   6   8)
       ---------------------------------------------------------------
       Max CFL number:  0.92E+00 at (  35,   6,   8)
       Max divergence:  0.52E-13 at (  30,  10,   8)
       Min divergence: -0.47E-13 at (  25,   7,   6)
       Max VN number:   0.18E+00 at (  14,   2,   4)
 
       Time Step     500   June 26, 2020  16:19:54
       Step Size:    0.853E-02 s, Total Time:       5.35 s
       Pressure Iterations:      5
       Maximum Velocity Error:  0.82E-02 on Mesh   1 at (   0   5   5)
       Maximum Pressure Error:  0.19E-10 on Mesh   1 at (  40   5   5)
       ---------------------------------------------------------------
       Max CFL number:  0.83E+00 at (  22,   8,   7)
       Max divergence:  0.60E-13 at (  40,   5,   5)
       Min divergence: -0.45E-13 at (  40,   5,   9)
       Max VN number:   0.11E+00 at (  39,   5,   5)
 
       Time Step     600   June 26, 2020  16:19:56
       Step Size:    0.103E-01 s, Total Time:       6.34 s
       Pressure Iterations:      5
       Maximum Velocity Error:  0.66E-02 on Mesh   1 at (  41   7   8)
       Maximum Pressure Error:  0.13E-10 on Mesh   1 at (  40   7   7)
       ---------------------------------------------------------------
       Max CFL number:  0.89E+00 at (  40,   4,   8)
       Max divergence:  0.44E-13 at (   1,   6,   7)
       Min divergence: -0.34E-13 at (  40,   4,  11)
       Max VN number:   0.17E+00 at (  14,  11,   4)
 
       Time Step     700   June 26, 2020  16:19:57
       Step Size:    0.103E-01 s, Total Time:       7.37 s
       Pressure Iterations:      5
       Maximum Velocity Error:  0.77E-02 on Mesh   1 at (   0   8   7)
       Maximum Pressure Error:  0.13E-10 on Mesh   1 at (  40   6   9)
       ---------------------------------------------------------------
       Max CFL number:  0.97E+00 at (  27,  10,   8)
       Max divergence:  0.43E-13 at (  35,   6,   5)
       Min divergence: -0.52E-13 at (  30,   9,   9)
       Max VN number:   0.18E+00 at (  14,  11,   4)
 
       Time Step     800   June 26, 2020  16:19:59
       Step Size:    0.927E-02 s, Total Time:       8.31 s
       Pressure Iterations:      4
       Maximum Velocity Error:  0.79E-02 on Mesh   1 at (   0   8   4)
       Maximum Pressure Error:  0.11E-10 on Mesh   1 at (  40  10   5)
       ---------------------------------------------------------------
       Max CFL number:  0.81E+00 at (  34,  10,   7)
       Max divergence:  0.48E-13 at (  25,   7,   5)
       Min divergence: -0.57E-13 at (  14,   3,   4)
       Max VN number:   0.20E+00 at (  14,   4,   4)
 
       Time Step     900   June 26, 2020  16:20:01
       Step Size:    0.102E-01 s, Total Time:       9.26 s
       Pressure Iterations:      4
       Maximum Velocity Error:  0.75E-02 on Mesh   1 at (   0   2   3)
       Maximum Pressure Error:  0.11E-10 on Mesh   1 at (  40   4   5)
       ---------------------------------------------------------------
       Max CFL number:  0.98E+00 at (  27,   5,   6)
       Max divergence:  0.38E-13 at (  28,   4,  11)
       Min divergence: -0.43E-13 at (  40,   4,   5)
       Max VN number:   0.23E+00 at (  14,   3,   4)
 
       Time Step    1000   June 26, 2020  16:20:03
       Step Size:    0.891E-02 s, Total Time:      10.15 s
       Pressure Iterations:      4
       Maximum Velocity Error:  0.93E-02 on Mesh   1 at (   0   7   6)
       Maximum Pressure Error:  0.11E-10 on Mesh   1 at (  30   8   6)
       ---------------------------------------------------------------
       Max CFL number:  0.86E+00 at (  40,   6,   6)
       Max divergence:  0.43E-13 at (  40,   6,   6)
       Min divergence: -0.48E-13 at (  30,   8,   6)
       Max VN number:   0.23E+00 at (  14,   2,   4)
 
       Time Step    1100   June 26, 2020  16:20:04
       Step Size:    0.891E-02 s, Total Time:      11.04 s
       Pressure Iterations:      4
       Maximum Velocity Error:  0.12E-01 on Mesh   1 at (   0   7   6)
       Maximum Pressure Error:  0.12E-10 on Mesh   1 at (  40   8   5)
       ---------------------------------------------------------------
       Max CFL number:  0.85E+00 at (  33,   7,   6)
       Max divergence:  0.42E-13 at (  35,   3,   5)
       Min divergence: -0.32E-13 at (  22,   8,   9)
       Max VN number:   0.20E+00 at (  14,  11,   4)
 
       Time Step    1200   June 26, 2020  16:20:06
       Step Size:    0.891E-02 s, Total Time:      11.93 s
       Pressure Iterations:      4
       Maximum Velocity Error:  0.11E-01 on Mesh   1 at (   0   8   9)
       Maximum Pressure Error:  0.11E-10 on Mesh   1 at (  30   6   9)
       ---------------------------------------------------------------
       Max CFL number:  0.80E+00 at (  23,   6,   7)
       Max divergence:  0.42E-13 at (  40,   7,   8)
       Min divergence: -0.49E-13 at (  40,   9,   6)
       Max VN number:   0.17E+00 at (  14,  10,   4)
 
       Time Step    1300   June 26, 2020  16:20:08
       Step Size:    0.957E-02 s, Total Time:      12.88 s
       Pressure Iterations:      4
       Maximum Velocity Error:  0.83E-02 on Mesh   1 at (   0   3   9)
       Maximum Pressure Error:  0.10E-10 on Mesh   1 at (  15  11   5)
       ---------------------------------------------------------------
       Max CFL number:  0.88E+00 at (  17,   7,   7)
       Max divergence:  0.39E-13 at (  40,   9,   5)
       Min divergence: -0.36E-13 at (  25,   7,   8)
       Max VN number:   0.21E+00 at (  14,   9,   4)
 
       Time Step    1400   June 26, 2020  16:20:10
       Step Size:    0.957E-02 s, Total Time:      13.84 s
       Pressure Iterations:      4
       Maximum Velocity Error:  0.11E-01 on Mesh   1 at (   0   5   5)
       Maximum Pressure Error:  0.69E-11 on Mesh   1 at (  40  10   9)
       ---------------------------------------------------------------
       Max CFL number:  0.94E+00 at (  33,  10,   7)
       Max divergence:  0.44E-13 at (  21,   7,   5)
       Min divergence: -0.36E-13 at (  35,   4,   5)
       Max VN number:   0.17E+00 at (  14,  11,   4)
 
       Time Step    1500   June 26, 2020  16:20:12
       Step Size:    0.932E-02 s, Total Time:      14.76 s
       Pressure Iterations:      4
       Maximum Velocity Error:  0.97E-02 on Mesh   1 at (   0   9   8)
       Maximum Pressure Error:  0.10E-10 on Mesh   1 at (  25  10   6)
       ---------------------------------------------------------------
       Max CFL number:  0.88E+00 at (  25,   9,   6)
       Max divergence:  0.41E-13 at (  25,   9,   6)
       Min divergence: -0.50E-13 at (  26,   9,   6)
       Max VN number:   0.23E+00 at (  14,   2,   4)
 
       Time Step    1600   June 26, 2020  16:20:14
       Step Size:    0.912E-02 s, Total Time:      15.66 s
       Pressure Iterations:      4
       Maximum Velocity Error:  0.75E-02 on Mesh   1 at (   0   4   7)
       Maximum Pressure Error:  0.11E-10 on Mesh   1 at (  40   8   5)
       ---------------------------------------------------------------
       Max CFL number:  0.85E+00 at (  21,   4,   6)
       Max divergence:  0.45E-13 at (  25,   7,   6)
       Min divergence: -0.44E-13 at (  40,   8,   5)
       Max VN number:   0.20E+00 at (  14,  10,   4)
 
       Time Step    1700   June 26, 2020  16:20:16
       Step Size:    0.100E-01 s, Total Time:      16.61 s
       Pressure Iterations:      4
       Maximum Velocity Error:  0.76E-02 on Mesh   1 at (  41   9  10)
       Maximum Pressure Error:  0.10E-10 on Mesh   1 at (  40   9  10)
       ---------------------------------------------------------------
       Max CFL number:  0.92E+00 at (  30,   7,   5)
       Max divergence:  0.50E-13 at (  30,   7,   5)
       Min divergence: -0.41E-13 at (   1,   9,   9)
       Max VN number:   0.22E+00 at (  14,   4,   4)
 
       Time Step    1800   June 26, 2020  16:20:18
       Step Size:    0.100E-01 s, Total Time:      17.62 s
       Pressure Iterations:      4
       Maximum Velocity Error:  0.10E-01 on Mesh   1 at (   0  10  10)
       Maximum Pressure Error:  0.10E-10 on Mesh   1 at (  35   9   7)
       ---------------------------------------------------------------
       Max CFL number:  0.98E+00 at (  25,   6,   8)
       Max divergence:  0.38E-13 at (  25,   5,  10)
       Min divergence: -0.43E-13 at (  25,   9,   6)
       Max VN number:   0.24E+00 at (  14,   2,   4)
 
       Time Step    1900   June 26, 2020  16:20:20
       Step Size:    0.898E-02 s, Total Time:      18.57 s
       Pressure Iterations:      4
       Maximum Velocity Error:  0.89E-02 on Mesh   1 at (   0   9   5)
       Maximum Pressure Error:  0.10E-10 on Mesh   1 at (  30  11   8)
       ---------------------------------------------------------------
       Max CFL number:  0.85E+00 at (  13,   9,   6)
       Max divergence:  0.36E-13 at (   1,   7,   4)
       Min divergence: -0.34E-13 at (  40,   8,   6)
       Max VN number:   0.21E+00 at (  14,  10,   4)
 
       Time Step    2000   June 26, 2020  16:20:22
       Step Size:    0.988E-02 s, Total Time:      19.49 s
       Pressure Iterations:      4
       Maximum Velocity Error:  0.12E-01 on Mesh   1 at (   0  10   5)
       Maximum Pressure Error:  0.91E-11 on Mesh   1 at (  40  10   5)
       ---------------------------------------------------------------
       Max CFL number:  0.99E+00 at (   4,   9,   5)
       Max divergence:  0.39E-13 at (  40,   9,   9)
       Min divergence: -0.40E-13 at (  40,  10,   5)
       Max VN number:   0.26E+00 at (  14,   8,   4)
 
       Time Step    2100   June 26, 2020  16:20:23
       Step Size:    0.959E-02 s, Total Time:      20.44 s
       Pressure Iterations:      4
       Maximum Velocity Error:  0.90E-02 on Mesh   1 at (  41  10   7)
       Maximum Pressure Error:  0.13E-10 on Mesh   1 at (  40  10   6)
       ---------------------------------------------------------------
       Max CFL number:  0.94E+00 at (  25,  10,   7)
       Max divergence:  0.78E-13 at (  25,  10,   7)
       Min divergence: -0.33E-13 at (  30,   8,   8)
       Max VN number:   0.19E+00 at (  14,  11,   4)
 
       Time Step    2200   June 26, 2020  16:20:26
       Step Size:    0.925E-02 s, Total Time:      21.37 s
       Pressure Iterations:      5
       Maximum Velocity Error:  0.77E-02 on Mesh   1 at (   0   9   5)
       Maximum Pressure Error:  0.12E-10 on Mesh   1 at (  40   9   5)
       ---------------------------------------------------------------
       Max CFL number:  0.84E+00 at (  23,   9,   7)
       Max divergence:  0.37E-13 at (  34,  10,   5)
       Min divergence: -0.35E-13 at (  22,   8,   7)
       Max VN number:   0.17E+00 at (  14,  11,   4)
 
       Time Step    2300   June 26, 2020  16:20:28
       Step Size:    0.102E-01 s, Total Time:      22.33 s
       Pressure Iterations:      4
       Maximum Velocity Error:  0.10E-01 on Mesh   1 at (   0   6   7)
       Maximum Pressure Error:  0.98E-11 on Mesh   1 at (  40   9   6)
       ---------------------------------------------------------------
       Max CFL number:  0.89E+00 at (  28,   4,   8)
       Max divergence:  0.43E-13 at (  40,   3,   7)
       Min divergence: -0.48E-13 at (  14,  11,   5)
       Max VN number:   0.22E+00 at (  14,   8,   4)
 
       Time Step    2400   June 26, 2020  16:20:29
       Step Size:    0.102E-01 s, Total Time:      23.35 s
       Pressure Iterations:      4
       Maximum Velocity Error:  0.70E-02 on Mesh   1 at (   0  11   4)
       Maximum Pressure Error:  0.99E-11 on Mesh   1 at (  25   8   9)
       ---------------------------------------------------------------
       Max CFL number:  0.99E+00 at (  20,   4,   9)
       Max divergence:  0.47E-13 at (  25,   2,   6)
       Min divergence: -0.42E-13 at (  21,   4,   9)
       Max VN number:   0.23E+00 at (  14,   2,   4)
 
       Time Step    2500   June 26, 2020  16:20:31
       Step Size:    0.899E-02 s, Total Time:      24.25 s
       Pressure Iterations:      4
       Maximum Velocity Error:  0.12E-01 on Mesh   1 at (   0   7   6)
       Maximum Pressure Error:  0.10E-10 on Mesh   1 at (  30   7   5)
       ---------------------------------------------------------------
       Max CFL number:  0.85E+00 at (  40,   9,   6)
       Max divergence:  0.39E-13 at (  30,   7,   5)
       Min divergence: -0.36E-13 at (  14,   8,   4)
       Max VN number:   0.17E+00 at (  14,   8,   4)
 
       Time Step    2600   June 26, 2020  16:20:33
       Step Size:    0.989E-02 s, Total Time:      25.23 s
       Pressure Iterations:      5
       Maximum Velocity Error:  0.73E-02 on Mesh   1 at (   0   9   7)
       Maximum Pressure Error:  0.13E-10 on Mesh   1 at (  35   4   6)
       ---------------------------------------------------------------
       Max CFL number:  0.94E+00 at (  35,   4,   8)
       Max divergence:  0.44E-13 at (  35,   8,   7)
       Min divergence: -0.51E-13 at (  35,   4,   6)
       Max VN number:   0.23E+00 at (  14,   8,   4)
 
       Time Step    2700   June 26, 2020  16:20:35
       Step Size:    0.965E-02 s, Total Time:      26.19 s
       Pressure Iterations:      4
       Maximum Velocity Error:  0.10E-01 on Mesh   1 at (  41   4   9)
       Maximum Pressure Error:  0.10E-10 on Mesh   1 at (  40   4   9)
       ---------------------------------------------------------------
       Max CFL number:  0.87E+00 at (  27,   5,   7)
       Max divergence:  0.40E-13 at (  40,   3,   4)
       Min divergence: -0.43E-13 at (  35,   3,   6)
       Max VN number:   0.19E+00 at (  14,   9,   4)
 
       Time Step    2800   June 26, 2020  16:20:37
       Step Size:    0.965E-02 s, Total Time:      27.15 s
       Pressure Iterations:      4
       Maximum Velocity Error:  0.82E-02 on Mesh   1 at (   0   4   9)
       Maximum Pressure Error:  0.98E-11 on Mesh   1 at (  30  11   7)
       ---------------------------------------------------------------
       Max CFL number:  0.91E+00 at (  35,   5,   7)
       Max divergence:  0.41E-13 at (  35,   5,   7)
       Min divergence: -0.32E-13 at (  40,   9,  11)
       Max VN number:   0.21E+00 at (  14,  10,   4)
 
       Time Step    2900   June 26, 2020  16:20:39
       Step Size:    0.965E-02 s, Total Time:      28.12 s
       Pressure Iterations:      4
       Maximum Velocity Error:  0.11E-01 on Mesh   1 at (   0  11   6)
       Maximum Pressure Error:  0.12E-10 on Mesh   1 at (  40   5   9)
       ---------------------------------------------------------------
       Max CFL number:  0.84E+00 at (  27,   5,   9)
       Max divergence:  0.43E-13 at (  40,   3,   5)
       Min divergence: -0.58E-13 at (  40,   5,   9)
       Max VN number:   0.19E+00 at (  14,  11,   4)
 
       Time Step    3000   June 26, 2020  16:20:41
       Step Size:    0.965E-02 s, Total Time:      29.08 s
       Pressure Iterations:      4
       Maximum Velocity Error:  0.88E-02 on Mesh   1 at (   0   2   9)
       Maximum Pressure Error:  0.86E-11 on Mesh   1 at (  35  10   9)
       ---------------------------------------------------------------
       Max CFL number:  0.93E+00 at (  23,   5,   7)
       Max divergence:  0.40E-13 at (  30,  10,   6)
       Min divergence: -0.41E-13 at (  36,   6,   6)
       Max VN number:   0.20E+00 at (  14,   7,   4)
 
       Time Step    3100   June 26, 2020  16:20:42
       Step Size:    0.965E-02 s, Total Time:      30.05 s
       Pressure Iterations:      4
       Maximum Velocity Error:  0.97E-02 on Mesh   1 at (   0   2   5)
       Maximum Pressure Error:  0.12E-10 on Mesh   1 at (  40   5  11)
       ---------------------------------------------------------------
       Max CFL number:  0.89E+00 at (  25,   4,  10)
       Max divergence:  0.43E-13 at (  40,  10,   4)
       Min divergence: -0.36E-13 at (  26,   4,  10)
       Max VN number:   0.17E+00 at (  14,  11,   4)
 
       Time Step    3200   June 26, 2020  16:20:44
       Step Size:    0.965E-02 s, Total Time:      31.01 s
       Pressure Iterations:      4
       Maximum Velocity Error:  0.12E-01 on Mesh   1 at (   0   4   6)
       Maximum Pressure Error:  0.12E-10 on Mesh   1 at (  40   2   5)
       ---------------------------------------------------------------
       Max CFL number:  0.94E+00 at (  18,   8,  10)
       Max divergence:  0.39E-13 at (  40,   2,   5)
       Min divergence: -0.46E-13 at (  15,   7,   5)
       Max VN number:   0.23E+00 at (  14,  11,   4)
 
       Time Step    3300   June 26, 2020  16:20:46
       Step Size:    0.954E-02 s, Total Time:      31.97 s
       Pressure Iterations:      5
       Maximum Velocity Error:  0.83E-02 on Mesh   1 at (   0   6   6)
       Maximum Pressure Error:  0.89E-11 on Mesh   1 at (  25   8   8)
       ---------------------------------------------------------------
       Max CFL number:  0.87E+00 at (  33,   3,   6)
       Max divergence:  0.37E-13 at (  30,   7,   5)
       Min divergence: -0.37E-13 at (  35,   8,   6)
       Max VN number:   0.18E+00 at (  14,   7,   4)
 
       Time Step    3400   June 26, 2020  16:20:48
       Step Size:    0.844E-02 s, Total Time:      32.91 s
       Pressure Iterations:      4
       Maximum Velocity Error:  0.78E-02 on Mesh   1 at (   0   6   7)
       Maximum Pressure Error:  0.12E-10 on Mesh   1 at (  40   6   7)
       ---------------------------------------------------------------
       Max CFL number:  0.82E+00 at (  18,   4,   8)
       Max divergence:  0.46E-13 at (  40,   6,   7)
       Min divergence: -0.52E-13 at (  19,   4,   9)
       Max VN number:   0.20E+00 at (  14,   9,   4)
 
       Time Step    3500   June 26, 2020  16:20:50
       Step Size:    0.906E-02 s, Total Time:      33.77 s
       Pressure Iterations:      4
       Maximum Velocity Error:  0.75E-02 on Mesh   1 at (   0   8   5)
       Maximum Pressure Error:  0.11E-10 on Mesh   1 at (  30   7   7)
       ---------------------------------------------------------------
       Max CFL number:  0.91E+00 at (  30,   6,   7)
       Max divergence:  0.36E-13 at (  20,   4,   5)
       Min divergence: -0.39E-13 at (  14,   3,   4)
       Max VN number:   0.21E+00 at (  14,   3,   4)
 
       Time Step    3600   June 26, 2020  16:20:52
       Step Size:    0.906E-02 s, Total Time:      34.68 s
       Pressure Iterations:      5
       Maximum Velocity Error:  0.91E-02 on Mesh   1 at (   0   8   4)
       Maximum Pressure Error:  0.11E-10 on Mesh   1 at (  40   9   3)
       ---------------------------------------------------------------
       Max CFL number:  0.84E+00 at (  30,   7,   7)
       Max divergence:  0.32E-13 at (  40,   6,   6)
       Min divergence: -0.40E-13 at (  33,   9,   6)
       Max VN number:   0.23E+00 at (  14,  10,   4)
 
       Time Step    3700   June 26, 2020  16:20:54
       Step Size:    0.906E-02 s, Total Time:      35.59 s
       Pressure Iterations:      4
       Maximum Velocity Error:  0.91E-02 on Mesh   1 at (   0   3   5)
       Maximum Pressure Error:  0.10E-10 on Mesh   1 at (  40   7   7)
       ---------------------------------------------------------------
       Max CFL number:  0.85E+00 at (  30,   7,   8)
       Max divergence:  0.43E-13 at (  15,   1,  11)
       Min divergence: -0.38E-13 at (  40,   9,   8)
       Max VN number:   0.19E+00 at (  14,  11,   4)
 
       Time Step    3800   June 26, 2020  16:20:56
       Step Size:    0.906E-02 s, Total Time:      36.49 s
       Pressure Iterations:      5
       Maximum Velocity Error:  0.72E-02 on Mesh   1 at (   0   8   5)
       Maximum Pressure Error:  0.13E-10 on Mesh   1 at (  40   8   5)
       ---------------------------------------------------------------
       Max CFL number:  0.90E+00 at (  27,   7,   6)
       Max divergence:  0.50E-13 at (  30,   4,   9)
       Min divergence: -0.36E-13 at (  23,   9,  12)
       Max VN number:   0.22E+00 at (  14,   9,   4)
 
       Time Step    3900   June 26, 2020  16:20:59
       Step Size:    0.996E-02 s, Total Time:      37.44 s
       Pressure Iterations:      5
       Maximum Velocity Error:  0.84E-02 on Mesh   1 at (   0   4  11)
       Maximum Pressure Error:  0.11E-10 on Mesh   1 at (  40   6  10)
       ---------------------------------------------------------------
       Max CFL number:  0.93E+00 at (  30,   4,   8)
       Max divergence:  0.53E-13 at (  30,   6,   8)
       Min divergence: -0.47E-13 at (  30,   7,   7)
       Max VN number:   0.21E+00 at (  14,  11,   4)
 
       Time Step    4000   June 26, 2020  16:21:00
       Step Size:    0.959E-02 s, Total Time:      38.39 s
       Pressure Iterations:      4
       Maximum Velocity Error:  0.87E-02 on Mesh   1 at (   0   4   7)
       Maximum Pressure Error:  0.12E-10 on Mesh   1 at (  40   6   7)
       ---------------------------------------------------------------
       Max CFL number:  0.88E+00 at (  25,   7,   8)
       Max divergence:  0.36E-13 at (   1,  10,   7)
       Min divergence: -0.43E-13 at (  14,   2,   5)
       Max VN number:   0.23E+00 at (  14,   2,   4)
 
       Time Step    4100   June 26, 2020  16:21:02
       Step Size:    0.959E-02 s, Total Time:      39.35 s
       Pressure Iterations:      4
       Maximum Velocity Error:  0.64E-02 on Mesh   1 at (   0  10   6)
       Maximum Pressure Error:  0.13E-10 on Mesh   1 at (  30   5   5)
       ---------------------------------------------------------------
       Max CFL number:  0.92E+00 at (  33,   5,   5)
       Max divergence:  0.66E-13 at (  30,   5,   5)
       Min divergence: -0.34E-13 at (  40,   5,  10)
       Max VN number:   0.17E+00 at (  14,   2,   4)
 
       Time Step    4200   June 26, 2020  16:21:05
       Step Size:    0.959E-02 s, Total Time:      40.31 s
       Pressure Iterations:      5
       Maximum Velocity Error:  0.63E-02 on Mesh   1 at (  41   4   7)
       Maximum Pressure Error:  0.86E-11 on Mesh   1 at (  30   7   9)
       ---------------------------------------------------------------
       Max CFL number:  0.93E+00 at (  34,   3,   5)
       Max divergence:  0.42E-13 at (  30,   5,  10)
       Min divergence: -0.39E-13 at (  30,   4,   9)
       Max VN number:   0.18E+00 at (  14,   9,   4)
 
       Time Step    4300   June 26, 2020  16:21:06
       Step Size:    0.938E-02 s, Total Time:      41.26 s
       Pressure Iterations:      5
       Maximum Velocity Error:  0.83E-02 on Mesh   1 at (   0  10   5)
       Maximum Pressure Error:  0.13E-10 on Mesh   1 at (  40   6   4)
       ---------------------------------------------------------------
       Max CFL number:  0.88E+00 at (  25,   4,   9)
       Max divergence:  0.55E-13 at (  40,   6,   4)
       Min divergence: -0.36E-13 at (  35,   7,   5)
       Max VN number:   0.20E+00 at (  14,  11,   4)
 
       Time Step    4400   June 26, 2020  16:21:08
       Step Size:    0.938E-02 s, Total Time:      42.19 s
       Pressure Iterations:      4
       Maximum Velocity Error:  0.84E-02 on Mesh   1 at (   0   3   6)
       Maximum Pressure Error:  0.92E-11 on Mesh   1 at (  40  12   5)
       ---------------------------------------------------------------
       Max CFL number:  0.92E+00 at (  37,   4,   8)
       Max divergence:  0.33E-13 at (   2,  11,   6)
       Min divergence: -0.33E-13 at (  34,   5,  10)
       Max VN number:   0.18E+00 at (  14,  11,   4)
 
       Time Step    4500   June 26, 2020  16:21:10
       Step Size:    0.835E-02 s, Total Time:      43.12 s
       Pressure Iterations:      3
       Maximum Velocity Error:  0.11E-01 on Mesh   1 at (   0   2   5)
       Maximum Pressure Error:  0.11E-10 on Mesh   1 at (  30   9   6)
       ---------------------------------------------------------------
       Max CFL number:  0.84E+00 at (  28,   7,   8)
       Max divergence:  0.46E-13 at (  30,   5,   6)
       Min divergence: -0.45E-13 at (  35,   9,   5)
       Max VN number:   0.19E+00 at (  14,  11,   4)
 
       Time Step    4600   June 26, 2020  16:21:12
       Step Size:    0.885E-02 s, Total Time:      44.08 s
       Pressure Iterations:      5
       Maximum Velocity Error:  0.64E-02 on Mesh   1 at (   0   6   7)
       Maximum Pressure Error:  0.12E-10 on Mesh   1 at (  40   6   7)
       ---------------------------------------------------------------
       Max CFL number:  0.84E+00 at (  40,   6,   7)
       Max divergence:  0.59E-13 at (  40,   6,   7)
       Min divergence: -0.36E-13 at (  40,  10,   5)
       Max VN number:   0.19E+00 at (  14,   8,   4)
 
       Time Step    4700   June 26, 2020  16:21:15
       Step Size:    0.974E-02 s, Total Time:      45.05 s
       Pressure Iterations:      4
       Maximum Velocity Error:  0.12E-01 on Mesh   1 at (   0   6   5)
       Maximum Pressure Error:  0.80E-11 on Mesh   1 at (  17   5   9)
       ---------------------------------------------------------------
       Max CFL number:  0.99E+00 at (  18,   5,   9)
       Max divergence:  0.46E-13 at (  35,   8,   5)
       Min divergence: -0.36E-13 at (  30,   4,   8)
       Max VN number:   0.20E+00 at (  14,   8,   4)
 
       Time Step    4800   June 26, 2020  16:21:17
       Step Size:    0.946E-02 s, Total Time:      45.97 s
       Pressure Iterations:      4
       Maximum Velocity Error:  0.79E-02 on Mesh   1 at (   0   9   7)
       Maximum Pressure Error:  0.97E-11 on Mesh   1 at (  35   4   7)
       ---------------------------------------------------------------
       Max CFL number:  0.87E+00 at (  17,   3,   7)
       Max divergence:  0.38E-13 at (  40,   5,  11)
       Min divergence: -0.48E-13 at (  35,   6,   9)
       Max VN number:   0.21E+00 at (  14,   9,   4)
 
       Time Step    4900   June 26, 2020  16:21:19
       Step Size:    0.927E-02 s, Total Time:      46.92 s
       Pressure Iterations:      4
       Maximum Velocity Error:  0.10E-01 on Mesh   1 at (   0   5   9)
       Maximum Pressure Error:  0.13E-10 on Mesh   1 at (  40   3   6)
       ---------------------------------------------------------------
       Max CFL number:  0.83E+00 at (  20,   2,  10)
       Max divergence:  0.53E-13 at (  40,   3,   6)
       Min divergence: -0.26E-13 at (  30,   9,   8)
       Max VN number:   0.15E+00 at (  31,   1,   5)
 
       Time Step    5000   June 26, 2020  16:21:21
       Step Size:    0.901E-02 s, Total Time:      47.87 s
       Pressure Iterations:      4
       Maximum Velocity Error:  0.12E-01 on Mesh   1 at (   0   2   6)
       Maximum Pressure Error:  0.95E-11 on Mesh   1 at (  40   8   8)
       ---------------------------------------------------------------
       Max CFL number:  0.88E+00 at (  24,   5,   7)
       Max divergence:  0.33E-13 at (  35,   6,  10)
       Min divergence: -0.32E-13 at (  40,   8,   8)
       Max VN number:   0.18E+00 at (  14,   7,   4)
 
       Time Step    5100   June 26, 2020  16:21:23
       Step Size:    0.888E-02 s, Total Time:      48.81 s
       Pressure Iterations:      4
       Maximum Velocity Error:  0.11E-01 on Mesh   1 at (   0   9   5)
       Maximum Pressure Error:  0.14E-10 on Mesh   1 at (  40   7   7)
       ---------------------------------------------------------------
       Max CFL number:  0.83E+00 at (  35,   7,   5)
       Max divergence:  0.50E-13 at (  40,   7,   7)
       Min divergence: -0.55E-13 at (  14,  10,   5)
       Max VN number:   0.23E+00 at (  14,   7,   4)
 
       Time Step    5200   June 26, 2020  16:21:25
       Step Size:    0.941E-02 s, Total Time:      49.72 s
       Pressure Iterations:      4
       Maximum Velocity Error:  0.10E-01 on Mesh   1 at (   0   8   9)
       Maximum Pressure Error:  0.11E-10 on Mesh   1 at (  40   8   9)
       ---------------------------------------------------------------
       Max CFL number:  0.95E+00 at (  22,   5,   6)
       Max divergence:  0.42E-13 at (  40,   9,   8)
       Min divergence: -0.43E-13 at (  14,   2,   5)
       Max VN number:   0.25E+00 at (  14,   3,   4)
 
       Time Step    5300   June 26, 2020  16:21:27
       Step Size:    0.941E-02 s, Total Time:      50.66 s
       Pressure Iterations:      5
       Maximum Velocity Error:  0.64E-02 on Mesh   1 at (   0   5   9)
       Maximum Pressure Error:  0.11E-10 on Mesh   1 at (  25   5   9)
       ---------------------------------------------------------------
       Max CFL number:  0.86E+00 at (  27,   9,   7)
       Max divergence:  0.41E-13 at (  40,   6,   9)
       Min divergence: -0.39E-13 at (  40,   2,   9)
       Max VN number:   0.18E+00 at (  14,   8,   4)
 
       Time Step    5400   June 26, 2020  16:21:29
       Step Size:    0.941E-02 s, Total Time:      51.61 s
       Pressure Iterations:      4
       Maximum Velocity Error:  0.63E-02 on Mesh   1 at (   0   2   8)
       Maximum Pressure Error:  0.10E-10 on Mesh   1 at (  40   7   4)
       ---------------------------------------------------------------
       Max CFL number:  0.83E+00 at (  34,   3,   9)
       Max divergence:  0.37E-13 at (  40,   6,   7)
       Min divergence: -0.47E-13 at (  40,   7,   4)
       Max VN number:   0.12E+00 at (  15,  12,  12)
 
       Time Step    5500   June 26, 2020  16:21:31
       Step Size:    0.941E-02 s, Total Time:      52.55 s
       Pressure Iterations:      4
       Maximum Velocity Error:  0.10E-01 on Mesh   1 at (   0   4   7)
       Maximum Pressure Error:  0.93E-11 on Mesh   1 at (  40   4   8)
       ---------------------------------------------------------------
       Max CFL number:  0.93E+00 at (   4,   5,   7)
       Max divergence:  0.30E-13 at (   9,   5,   8)
       Min divergence: -0.37E-13 at (  40,   2,   5)
       Max VN number:   0.20E+00 at (  14,   3,   4)
 
       Time Step    5600   June 26, 2020  16:21:33
       Step Size:    0.941E-02 s, Total Time:      53.49 s
       Pressure Iterations:      4
       Maximum Velocity Error:  0.65E-02 on Mesh   1 at (   0   8   5)
       Maximum Pressure Error:  0.10E-10 on Mesh   1 at (  40   9   7)
       ---------------------------------------------------------------
       Max CFL number:  0.90E+00 at (  20,   8,   7)
       Max divergence:  0.36E-13 at (  40,  10,   7)
       Min divergence: -0.36E-13 at (  14,  10,   3)
       Max VN number:   0.21E+00 at (  14,   9,   4)
 
       Time Step    5700   June 26, 2020  16:21:35
       Step Size:    0.941E-02 s, Total Time:      54.43 s
       Pressure Iterations:      4
       Maximum Velocity Error:  0.67E-02 on Mesh   1 at (  41   7  10)
       Maximum Pressure Error:  0.77E-11 on Mesh   1 at (  30   7   8)
       ---------------------------------------------------------------
       Max CFL number:  0.84E+00 at (  30,   7,   8)
       Max divergence:  0.36E-13 at (  40,   1,   5)
       Min divergence: -0.33E-13 at (  40,   7,   9)
       Max VN number:   0.24E+00 at (  14,  11,   4)
 
       Time Step    5800   June 26, 2020  16:21:37
       Step Size:    0.941E-02 s, Total Time:      55.37 s
       Pressure Iterations:      4
       Maximum Velocity Error:  0.10E-01 on Mesh   1 at (   0   5   5)
       Maximum Pressure Error:  0.88E-11 on Mesh   1 at (  40   3   7)
       ---------------------------------------------------------------
       Max CFL number:  0.82E+00 at (  22,   3,   6)
       Max divergence:  0.39E-13 at (  40,  10,   5)
       Min divergence: -0.34E-13 at (   5,   1,   8)
       Max VN number:   0.20E+00 at (  14,   3,   4)
 
       Time Step    5900   June 26, 2020  16:21:39
       Step Size:    0.102E-01 s, Total Time:      56.39 s
       Pressure Iterations:      4
       Maximum Velocity Error:  0.11E-01 on Mesh   1 at (  41   3   8)
       Maximum Pressure Error:  0.17E-10 on Mesh   1 at (  40  10   7)
       ---------------------------------------------------------------
       Max CFL number:  0.90E+00 at (  18,   5,   8)
       Max divergence:  0.53E-13 at (  40,  10,   7)
       Min divergence: -0.42E-13 at (  25,   5,   8)
       Max VN number:   0.22E+00 at (  14,   5,   4)
 
       Time Step    6000   June 26, 2020  16:21:41
       Step Size:    0.912E-02 s, Total Time:      57.32 s
       Pressure Iterations:      4
       Maximum Velocity Error:  0.77E-02 on Mesh   1 at (   0   4   3)
       Maximum Pressure Error:  0.11E-10 on Mesh   1 at (  40   2   6)
       ---------------------------------------------------------------
       Max CFL number:  0.93E+00 at (   4,   6,   6)
       Max divergence:  0.50E-13 at (  40,   2,   6)
       Min divergence: -0.36E-13 at (  13,   2,   5)
       Max VN number:   0.19E+00 at (  14,   6,   4)
 
       Time Step    6100   June 26, 2020  16:21:43
       Step Size:    0.912E-02 s, Total Time:      58.23 s
       Pressure Iterations:      5
       Maximum Velocity Error:  0.67E-02 on Mesh   1 at (   0  10   8)
       Maximum Pressure Error:  0.86E-11 on Mesh   1 at (  25   7   5)
       ---------------------------------------------------------------
       Max CFL number:  0.84E+00 at (  33,   3,   8)
       Max divergence:  0.36E-13 at (  35,   3,   9)
       Min divergence: -0.48E-13 at (  35,   8,   9)
       Max VN number:   0.19E+00 at (  14,   8,   4)
 
       Time Step    6200   June 26, 2020  16:21:45
       Step Size:    0.896E-02 s, Total Time:      59.18 s
       Pressure Iterations:      4
       Maximum Velocity Error:  0.87E-02 on Mesh   1 at (   0   8   5)
       Maximum Pressure Error:  0.89E-11 on Mesh   1 at (  25   5  10)
       ---------------------------------------------------------------
       Max CFL number:  0.86E+00 at (  25,   5,  10)
       Max divergence:  0.45E-13 at (  25,   5,  10)
       Min divergence: -0.34E-13 at (  30,   5,   8)
       Max VN number:   0.16E+00 at (  14,   5,   4)
 
       Time Step    6300   June 26, 2020  16:21:47
       Step Size:    0.896E-02 s, Total Time:      60.08 s
       Pressure Iterations:      4
       Maximum Velocity Error:  0.10E-01 on Mesh   1 at (  41   3   6)
       Maximum Pressure Error:  0.10E-10 on Mesh   1 at (  40   6   8)
       ---------------------------------------------------------------
       Max CFL number:  0.85E+00 at (  29,   4,   8)
       Max divergence:  0.57E-13 at (  30,   2,   6)
       Min divergence: -0.37E-13 at (  30,   3,   9)
       Max VN number:   0.21E+00 at (  14,   4,   4)
 
       Time Step    6400   June 26, 2020  16:21:49
       Step Size:    0.986E-02 s, Total Time:      61.03 s
       Pressure Iterations:      4
       Maximum Velocity Error:  0.60E-02 on Mesh   1 at (   0   5  10)
       Maximum Pressure Error:  0.86E-11 on Mesh   1 at (  25   5   7)
       ---------------------------------------------------------------
       Max CFL number:  0.90E+00 at (  29,   7,   7)
       Max divergence:  0.53E-13 at (  30,   9,   7)
       Min divergence: -0.39E-13 at (  25,   7,   9)
       Max VN number:   0.21E+00 at (  14,   2,   4)
 
       Time Step    6500   June 26, 2020  16:21:51
       Step Size:    0.986E-02 s, Total Time:      62.02 s
       Pressure Iterations:      4
       Maximum Velocity Error:  0.11E-01 on Mesh   1 at (   0   7   4)
       Maximum Pressure Error:  0.11E-10 on Mesh   1 at (  40   8   7)
       ---------------------------------------------------------------
       Max CFL number:  0.88E+00 at (  22,   3,   8)
       Max divergence:  0.44E-13 at (  40,   7,   4)
       Min divergence: -0.39E-13 at (  40,   6,   5)
       Max VN number:   0.16E+00 at (  14,  10,   4)
 
       Time Step    6600   June 26, 2020  16:21:53
       Step Size:    0.883E-02 s, Total Time:      63.00 s
       Pressure Iterations:      4
       Maximum Velocity Error:  0.10E-01 on Mesh   1 at (   0   8   5)
       Maximum Pressure Error:  0.12E-10 on Mesh   1 at (  40   8   5)
       ---------------------------------------------------------------
       Max CFL number:  0.87E+00 at (  37,  10,   7)
       Max divergence:  0.34E-13 at (  40,   6,   7)
       Min divergence: -0.31E-13 at (  30,   9,  10)
       Max VN number:   0.16E+00 at (  14,  11,   4)
 
       Time Step    6700   June 26, 2020  16:21:55
       Step Size:    0.971E-02 s, Total Time:      63.95 s
       Pressure Iterations:      4
       Maximum Velocity Error:  0.12E-01 on Mesh   1 at (   0   9   5)
       Maximum Pressure Error:  0.95E-11 on Mesh   1 at (  40   9   4)
       ---------------------------------------------------------------
       Max CFL number:  0.91E+00 at (  29,  10,   8)
       Max divergence:  0.44E-13 at (  40,   9,   6)
       Min divergence: -0.33E-13 at (  31,  11,   7)
       Max VN number:   0.16E+00 at (  14,   6,   4)
 
       Time Step    6800   June 26, 2020  16:21:57
       Step Size:    0.971E-02 s, Total Time:      64.92 s
       Pressure Iterations:      5
       Maximum Velocity Error:  0.74E-02 on Mesh   1 at (   0   8   6)
       Maximum Pressure Error:  0.11E-10 on Mesh   1 at (  40  10   8)
       ---------------------------------------------------------------
       Max CFL number:  0.89E+00 at (  22,   9,  11)
       Max divergence:  0.46E-13 at (  25,   9,  10)
       Min divergence: -0.32E-13 at (  25,   9,   8)
       Max VN number:   0.21E+00 at (  14,  11,   4)
 
       Time Step    6900   June 26, 2020  16:22:00
       Step Size:    0.956E-02 s, Total Time:      65.85 s
       Pressure Iterations:      5
       Maximum Velocity Error:  0.65E-02 on Mesh   1 at (   0   4   7)
       Maximum Pressure Error:  0.15E-10 on Mesh   1 at (  40   5   7)
       ---------------------------------------------------------------
       Max CFL number:  0.95E+00 at (  40,   5,   7)
       Max divergence:  0.52E-13 at (  40,   5,   7)
       Min divergence: -0.50E-13 at (  14,  11,   5)
       Max VN number:   0.23E+00 at (  14,   5,   4)
 
       Time Step    7000   June 26, 2020  16:22:02
       Step Size:    0.946E-02 s, Total Time:      66.80 s
       Pressure Iterations:      4
       Maximum Velocity Error:  0.84E-02 on Mesh   1 at (   0   9   8)
       Maximum Pressure Error:  0.95E-11 on Mesh   1 at (  40  10   8)
       ---------------------------------------------------------------
       Max CFL number:  0.94E+00 at (  30,   3,   7)
       Max divergence:  0.41E-13 at (  30,   3,   7)
       Min divergence: -0.37E-13 at (  13,   1,   5)
       Max VN number:   0.20E+00 at (  14,   6,   4)
 
       Time Step    7100   June 26, 2020  16:22:05
       Step Size:    0.946E-02 s, Total Time:      67.74 s
       Pressure Iterations:      4
       Maximum Velocity Error:  0.74E-02 on Mesh   1 at (   0   7  10)
       Maximum Pressure Error:  0.10E-10 on Mesh   1 at (  15   7   5)
       ---------------------------------------------------------------
       Max CFL number:  0.91E+00 at (  25,   7,  10)
       Max divergence:  0.68E-13 at (  30,   6,   8)
       Min divergence: -0.48E-13 at (  40,   2,   8)
       Max VN number:   0.23E+00 at (  14,   9,   4)
 
       Time Step    7200   June 26, 2020  16:22:06
       Step Size:    0.946E-02 s, Total Time:      68.69 s
       Pressure Iterations:      4
       Maximum Velocity Error:  0.75E-02 on Mesh   1 at (   0   6   2)
       Maximum Pressure Error:  0.11E-10 on Mesh   1 at (  25  10  10)
       ---------------------------------------------------------------
       Max CFL number:  0.97E+00 at (  28,   9,   7)
       Max divergence:  0.58E-13 at (  25,  10,  10)
       Min divergence: -0.48E-13 at (  40,   9,   4)
       Max VN number:   0.18E+00 at (  14,   8,   4)
 
       Time Step    7300   June 26, 2020  16:22:09
       Step Size:    0.946E-02 s, Total Time:      69.63 s
       Pressure Iterations:      4
       Maximum Velocity Error:  0.11E-01 on Mesh   1 at (   0   4   4)
       Maximum Pressure Error:  0.12E-10 on Mesh   1 at (  40   5   9)
       ---------------------------------------------------------------
       Max CFL number:  0.85E+00 at (  32,   2,   9)
       Max divergence:  0.45E-13 at (  30,   8,  10)
       Min divergence: -0.51E-13 at (  40,  10,  10)
       Max VN number:   0.17E+00 at (  14,  11,   4)
 
       Time Step    7400   June 26, 2020  16:22:10
       Step Size:    0.946E-02 s, Total Time:      70.58 s
       Pressure Iterations:      5
       Maximum Velocity Error:  0.69E-02 on Mesh   1 at (   0   8   5)
       Maximum Pressure Error:  0.82E-11 on Mesh   1 at (  40  12   4)
       ---------------------------------------------------------------
       Max CFL number:  0.89E+00 at (  30,   6,   5)
       Max divergence:  0.43E-13 at (  30,   6,   5)
       Min divergence: -0.35E-13 at (  25,   8,   7)
       Max VN number:   0.20E+00 at (  14,   9,   4)
 
       Time Step    7500   June 26, 2020  16:22:12
       Step Size:    0.931E-02 s, Total Time:      71.50 s
       Pressure Iterations:      4
       Maximum Velocity Error:  0.67E-02 on Mesh   1 at (   0   8   8)
       Maximum Pressure Error:  0.11E-10 on Mesh   1 at (  30   9   5)
       ---------------------------------------------------------------
       Max CFL number:  0.85E+00 at (  39,   3,   8)
       Max divergence:  0.36E-13 at (   1,   7,   7)
       Min divergence: -0.34E-13 at (  29,   9,   6)
       Max VN number:   0.19E+00 at (  14,   5,   4)
 
       Time Step    7600   June 26, 2020  16:22:14
       Step Size:    0.931E-02 s, Total Time:      72.44 s
       Pressure Iterations:      4
       Maximum Velocity Error:  0.67E-02 on Mesh   1 at (  41   4   9)
       Maximum Pressure Error:  0.91E-11 on Mesh   1 at (  40   7   9)
       ---------------------------------------------------------------
       Max CFL number:  0.87E+00 at (  28,   5,  10)
       Max divergence:  0.34E-13 at (  36,   6,   5)
       Min divergence: -0.37E-13 at (  33,   6,   6)
       Max VN number:   0.17E+00 at (  14,   9,   4)
 
       Time Step    7700   June 26, 2020  16:22:16
       Step Size:    0.931E-02 s, Total Time:      73.37 s
       Pressure Iterations:      4
       Maximum Velocity Error:  0.10E-01 on Mesh   1 at (   0   3   9)
       Maximum Pressure Error:  0.98E-11 on Mesh   1 at (  40   7   8)
       ---------------------------------------------------------------
       Max CFL number:  0.85E+00 at (  30,   3,   8)
       Max divergence:  0.37E-13 at (  40,   2,   5)
       Min divergence: -0.45E-13 at (  40,   3,   9)
       Max VN number:   0.22E+00 at (  14,  11,   4)
 
       Time Step    7800   June 26, 2020  16:22:18
       Step Size:    0.931E-02 s, Total Time:      74.30 s
       Pressure Iterations:      4
       Maximum Velocity Error:  0.97E-02 on Mesh   1 at (   0   5   5)
       Maximum Pressure Error:  0.12E-10 on Mesh   1 at (  40   4   6)
       ---------------------------------------------------------------
       Max CFL number:  0.86E+00 at (   2,   5,   5)
       Max divergence:  0.35E-13 at (  40,   6,   6)
       Min divergence: -0.36E-13 at (  28,   9,   8)
       Max VN number:   0.20E+00 at (  14,   9,   4)
 
       Time Step    7900   June 26, 2020  16:22:20
       Step Size:    0.931E-02 s, Total Time:      75.23 s
       Pressure Iterations:      4
       Maximum Velocity Error:  0.89E-02 on Mesh   1 at (   0   4   6)
       Maximum Pressure Error:  0.14E-10 on Mesh   1 at (  40   4   6)
       ---------------------------------------------------------------
       Max CFL number:  0.82E+00 at (  18,   8,   9)
       Max divergence:  0.50E-13 at (  40,   6,   7)
       Min divergence: -0.39E-13 at (  14,  11,   5)
       Max VN number:   0.20E+00 at (  14,  11,   4)
 
       Time Step    8000   June 26, 2020  16:22:22
       Step Size:    0.931E-02 s, Total Time:      76.16 s
       Pressure Iterations:      4
       Maximum Velocity Error:  0.97E-02 on Mesh   1 at (   0   3   5)
       Maximum Pressure Error:  0.10E-10 on Mesh   1 at (  40   7   9)
       ---------------------------------------------------------------
       Max CFL number:  0.85E+00 at (  15,   6,   5)
       Max divergence:  0.48E-13 at (  35,   7,   5)
       Min divergence: -0.41E-13 at (  35,   9,   9)
       Max VN number:   0.22E+00 at (  14,   8,   4)
 
       Time Step    8100   June 26, 2020  16:22:24
       Step Size:    0.102E-01 s, Total Time:      77.12 s
       Pressure Iterations:      5
       Maximum Velocity Error:  0.85E-02 on Mesh   1 at (   0   7   8)
       Maximum Pressure Error:  0.12E-10 on Mesh   1 at (  40   9   9)
       ---------------------------------------------------------------
       Max CFL number:  0.90E+00 at (  18,   7,   8)
       Max divergence:  0.39E-13 at (  35,   7,   6)
       Min divergence: -0.60E-13 at (  40,   9,   8)
       Max VN number:   0.23E+00 at (  14,   3,   4)
 
       Time Step    8200   June 26, 2020  16:22:26
       Step Size:    0.909E-02 s, Total Time:      78.11 s
       Pressure Iterations:      4
       Maximum Velocity Error:  0.10E-01 on Mesh   1 at (   0   9   5)
       Maximum Pressure Error:  0.95E-11 on Mesh   1 at (  40  11  10)
       ---------------------------------------------------------------
       Max CFL number:  0.83E+00 at (  18,   6,   7)
       Max divergence:  0.47E-13 at (  35,  10,   5)
       Min divergence: -0.36E-13 at (  25,   6,   7)
       Max VN number:   0.20E+00 at (  14,   2,   4)
 
       Time Step    8300   June 26, 2020  16:22:28
       Step Size:    0.100E-01 s, Total Time:      79.08 s
       Pressure Iterations:      4
       Maximum Velocity Error:  0.85E-02 on Mesh   1 at (   0  10   4)
       Maximum Pressure Error:  0.91E-11 on Mesh   1 at (  40   5   7)
       ---------------------------------------------------------------
       Max CFL number:  0.85E+00 at (  18,   4,   7)
       Max divergence:  0.53E-13 at (  25,   5,   5)
       Min divergence: -0.43E-13 at (  40,   9,   4)
       Max VN number:   0.16E+00 at (  14,  11,   4)
 
       Time Step    8400   June 26, 2020  16:22:30
       Step Size:    0.100E-01 s, Total Time:      80.08 s
       Pressure Iterations:      4
       Maximum Velocity Error:  0.11E-01 on Mesh   1 at (   0   8   7)
       Maximum Pressure Error:  0.13E-10 on Mesh   1 at (  40   8   7)
       ---------------------------------------------------------------
       Max CFL number:  0.92E+00 at (  33,   9,   7)
       Max divergence:  0.44E-13 at (  40,   7,   7)
       Min divergence: -0.38E-13 at (  35,   9,   7)
       Max VN number:   0.22E+00 at (  14,   5,   4)
 
       Time Step    8500   June 26, 2020  16:22:32
       Step Size:    0.923E-02 s, Total Time:      81.02 s
       Pressure Iterations:      4
       Maximum Velocity Error:  0.80E-02 on Mesh   1 at (   0   6   6)
       Maximum Pressure Error:  0.78E-11 on Mesh   1 at (  13   2   5)
       ---------------------------------------------------------------
       Max CFL number:  0.88E+00 at (  15,   8,   8)
       Max divergence:  0.37E-13 at (  30,   4,  10)
       Min divergence: -0.39E-13 at (  13,   2,   5)
       Max VN number:   0.20E+00 at (  14,   5,   4)
 
       Time Step    8600   June 26, 2020  16:22:34
       Step Size:    0.923E-02 s, Total Time:      81.94 s
       Pressure Iterations:      4
       Maximum Velocity Error:  0.12E-01 on Mesh   1 at (   0   3   6)
       Maximum Pressure Error:  0.12E-10 on Mesh   1 at (  40   4   5)
       ---------------------------------------------------------------
       Max CFL number:  0.88E+00 at (  37,   7,   8)
       Max divergence:  0.32E-13 at (  40,   7,   8)
       Min divergence: -0.42E-13 at (  25,   9,   9)
       Max VN number:   0.22E+00 at (  14,   9,   4)
 
       Time Step    8700   June 26, 2020  16:22:36
       Step Size:    0.923E-02 s, Total Time:      82.86 s
       Pressure Iterations:      4
       Maximum Velocity Error:  0.96E-02 on Mesh   1 at (   0   5   5)
       Maximum Pressure Error:  0.14E-10 on Mesh   1 at (  40   7   4)
       ---------------------------------------------------------------
       Max CFL number:  0.83E+00 at (   8,   3,   6)
       Max divergence:  0.43E-13 at (  40,   7,   4)
       Min divergence: -0.37E-13 at (  40,   6,   6)
       Max VN number:   0.15E+00 at (  14,   8,   4)
 
       Time Step    8800   June 26, 2020  16:22:38
       Step Size:    0.102E-01 s, Total Time:      83.80 s
       Pressure Iterations:      4
       Maximum Velocity Error:  0.11E-01 on Mesh   1 at (   0  10   8)
       Maximum Pressure Error:  0.10E-10 on Mesh   1 at (  40   9   8)
       ---------------------------------------------------------------
       Max CFL number:  0.91E+00 at (  33,   9,   6)
       Max divergence:  0.40E-13 at (  25,   6,   5)
       Min divergence: -0.43E-13 at (  40,   9,   9)
       Max VN number:   0.25E+00 at (  14,   2,   4)
 
       Time Step    8900   June 26, 2020  16:22:40
       Step Size:    0.992E-02 s, Total Time:      84.75 s
       Pressure Iterations:      4
       Maximum Velocity Error:  0.10E-01 on Mesh   1 at (   0   8   6)
       Maximum Pressure Error:  0.11E-10 on Mesh   1 at (  40   3   9)
       ---------------------------------------------------------------
       Max CFL number:  0.94E+00 at (  28,   4,   6)
       Max divergence:  0.50E-13 at (  40,   6,   7)
       Min divergence: -0.44E-13 at (  40,   4,   9)
       Max VN number:   0.15E+00 at (  14,   3,   4)
 
       Time Step    9000   June 26, 2020  16:22:41
       Step Size:    0.992E-02 s, Total Time:      85.74 s
       Pressure Iterations:      4
       Maximum Velocity Error:  0.93E-02 on Mesh   1 at (   0   7   4)
       Maximum Pressure Error:  0.11E-10 on Mesh   1 at (  30   4   8)
       ---------------------------------------------------------------
       Max CFL number:  0.90E+00 at (  33,   8,   7)
       Max divergence:  0.42E-13 at (  25,   2,   7)
       Min divergence: -0.44E-13 at (  40,   8,   5)
       Max VN number:   0.22E+00 at (  14,  10,   4)
 
       Time Step    9100   June 26, 2020  16:22:43
       Step Size:    0.992E-02 s, Total Time:      86.74 s
       Pressure Iterations:      5
       Maximum Velocity Error:  0.88E-02 on Mesh   1 at (   0   8   5)
       Maximum Pressure Error:  0.10E-10 on Mesh   1 at (  40   7   6)
       ---------------------------------------------------------------
       Max CFL number:  0.89E+00 at (   5,   8,   5)
       Max divergence:  0.43E-13 at (  40,   7,   6)
       Min divergence: -0.35E-13 at (  35,   8,   6)
       Max VN number:   0.19E+00 at (  14,   7,   4)
 
       Time Step    9200   June 26, 2020  16:22:45
       Step Size:    0.992E-02 s, Total Time:      87.73 s
       Pressure Iterations:      5
       Maximum Velocity Error:  0.66E-02 on Mesh   1 at (   0   8   6)
       Maximum Pressure Error:  0.90E-11 on Mesh   1 at (  15   7   5)
       ---------------------------------------------------------------
       Max CFL number:  0.93E+00 at (  18,   4,   7)
       Max divergence:  0.44E-13 at (  40,   6,   6)
       Min divergence: -0.40E-13 at (  35,   7,   7)
       Max VN number:   0.22E+00 at (  14,   2,   4)
 
       Time Step    9300   June 26, 2020  16:22:47
       Step Size:    0.876E-02 s, Total Time:      88.64 s
       Pressure Iterations:      4
       Maximum Velocity Error:  0.83E-02 on Mesh   1 at (   0   4   8)
       Maximum Pressure Error:  0.79E-11 on Mesh   1 at (  40   2   9)
       ---------------------------------------------------------------
       Max CFL number:  0.82E+00 at (  20,   3,   8)
       Max divergence:  0.37E-13 at (  30,   2,   6)
       Min divergence: -0.31E-13 at (  29,   3,   9)
       Max VN number:   0.22E+00 at (  14,   2,   4)
 
       Time Step    9400   June 26, 2020  16:22:49
       Step Size:    0.964E-02 s, Total Time:      89.58 s
       Pressure Iterations:      4
       Maximum Velocity Error:  0.12E-01 on Mesh   1 at (   0   8   7)
       Maximum Pressure Error:  0.95E-11 on Mesh   1 at (  30   7   7)
       ---------------------------------------------------------------
       Max CFL number:  0.91E+00 at (  25,   4,   6)
       Max divergence:  0.45E-13 at (  25,   4,   6)
       Min divergence: -0.40E-13 at (   1,   5,  11)
       Max VN number:   0.19E+00 at (  14,  11,   4)
 
       Time Step    9500   June 26, 2020  16:22:51
       Step Size:    0.964E-02 s, Total Time:      90.54 s
       Pressure Iterations:      4
       Maximum Velocity Error:  0.72E-02 on Mesh   1 at (   0   6   6)
       Maximum Pressure Error:  0.10E-10 on Mesh   1 at (  40   7   8)
       ---------------------------------------------------------------
       Max CFL number:  0.85E+00 at (  18,   5,   6)
       Max divergence:  0.58E-13 at (  35,   4,   5)
       Min divergence: -0.36E-13 at (  35,   3,   9)
       Max VN number:   0.17E+00 at (  14,   5,   4)
 
       Time Step    9600   June 26, 2020  16:22:53
       Step Size:    0.851E-02 s, Total Time:      91.50 s
       Pressure Iterations:      3
       Maximum Velocity Error:  0.12E-01 on Mesh   1 at (   0   6   6)
       Maximum Pressure Error:  0.11E-10 on Mesh   1 at (  30   7   5)
       ---------------------------------------------------------------
       Max CFL number:  0.92E+00 at (  35,   7,   7)
       Max divergence:  0.44E-13 at (  35,   7,   7)
       Min divergence: -0.36E-13 at (  14,   4,   4)
       Max VN number:   0.19E+00 at (  14,   2,   4)
 
       Time Step    9700   June 26, 2020  16:22:55
       Step Size:    0.936E-02 s, Total Time:      92.41 s
       Pressure Iterations:      4
       Maximum Velocity Error:  0.10E-01 on Mesh   1 at (   0   6   6)
       Maximum Pressure Error:  0.11E-10 on Mesh   1 at (  30  10   5)
       ---------------------------------------------------------------
       Max CFL number:  0.90E+00 at (  22,   7,   7)
       Max divergence:  0.38E-13 at (  40,   6,   6)
       Min divergence: -0.34E-13 at (   9,   4,   6)
       Max VN number:   0.16E+00 at (  14,  11,   4)
 
       Time Step    9800   June 26, 2020  16:22:57
       Step Size:    0.936E-02 s, Total Time:      93.35 s
       Pressure Iterations:      4
       Maximum Velocity Error:  0.81E-02 on Mesh   1 at (   0   6   7)
       Maximum Pressure Error:  0.98E-11 on Mesh   1 at (  40   6   7)
       ---------------------------------------------------------------
       Max CFL number:  0.81E+00 at (  20,   6,   8)
       Max divergence:  0.28E-13 at (  26,  11,   6)
       Min divergence: -0.37E-13 at (  40,  10,   9)
       Max VN number:   0.18E+00 at (  14,  11,   4)
 
       Time Step    9900   June 26, 2020  16:22:59
       Step Size:    0.923E-02 s, Total Time:      94.34 s
       Pressure Iterations:      3
       Maximum Velocity Error:  0.11E-01 on Mesh   1 at (   0   8   3)
       Maximum Pressure Error:  0.85E-11 on Mesh   1 at (  30   3   8)
       ---------------------------------------------------------------
       Max CFL number:  0.88E+00 at (  28,   4,   7)
       Max divergence:  0.35E-13 at (  25,   6,  10)
       Min divergence: -0.39E-13 at (  14,   3,   5)
       Max VN number:   0.21E+00 at (  14,   4,   4)
 
       Time Step   10000   June 26, 2020  16:23:01
       Step Size:    0.923E-02 s, Total Time:      95.27 s
       Pressure Iterations:      4
       Maximum Velocity Error:  0.93E-02 on Mesh   1 at (   0   9   7)
       Maximum Pressure Error:  0.98E-11 on Mesh   1 at (  35   7   5)
       ---------------------------------------------------------------
       Max CFL number:  0.83E+00 at (  32,   9,   8)
       Max divergence:  0.32E-13 at (  35,   7,   5)
       Min divergence: -0.35E-13 at (  40,   8,   6)
       Max VN number:   0.15E+00 at (  14,  11,   4)
 
       Time Step   10100   June 26, 2020  16:23:03
       Step Size:    0.999E-02 s, Total Time:      96.18 s
       Pressure Iterations:      4
       Maximum Velocity Error:  0.10E-01 on Mesh   1 at (   0   6   7)
       Maximum Pressure Error:  0.12E-10 on Mesh   1 at (  40   9   9)
       ---------------------------------------------------------------
       Max CFL number:  0.91E+00 at (  32,   8,   6)
       Max divergence:  0.42E-13 at (  40,   8,   5)
       Min divergence: -0.41E-13 at (  40,   9,  10)
       Max VN number:   0.19E+00 at (  14,   2,   4)
 
       Time Step   10200   June 26, 2020  16:23:04
       Step Size:    0.983E-02 s, Total Time:      97.16 s
       Pressure Iterations:      5
       Maximum Velocity Error:  0.92E-02 on Mesh   1 at (   0  10   5)
       Maximum Pressure Error:  0.11E-10 on Mesh   1 at (  40  10   6)
       ---------------------------------------------------------------
       Max CFL number:  0.94E+00 at (  23,   7,   6)
       Max divergence:  0.50E-13 at (  40,  10,   6)
       Min divergence: -0.38E-13 at (  40,   7,   5)
       Max VN number:   0.18E+00 at (  14,  10,   4)
 
       Time Step   10300   June 26, 2020  16:23:06
       Step Size:    0.879E-02 s, Total Time:      98.04 s
       Pressure Iterations:      4
       Maximum Velocity Error:  0.93E-02 on Mesh   1 at (   0  10   6)
       Maximum Pressure Error:  0.14E-10 on Mesh   1 at (  40   8   6)
       ---------------------------------------------------------------
       Max CFL number:  0.81E+00 at (  18,   4,   7)
       Max divergence:  0.48E-13 at (  35,   5,   5)
       Min divergence: -0.36E-13 at (  24,   4,   6)
       Max VN number:   0.17E+00 at (  14,  11,   4)
 
       Time Step   10400   June 26, 2020  16:23:08
       Step Size:    0.967E-02 s, Total Time:      98.99 s
       Pressure Iterations:      4
       Maximum Velocity Error:  0.98E-02 on Mesh   1 at (   0   3   5)
       Maximum Pressure Error:  0.95E-11 on Mesh   1 at (  40   3   6)
       ---------------------------------------------------------------
       Max CFL number:  0.87E+00 at (  24,   6,   9)
       Max divergence:  0.44E-13 at (  40,  11,   6)
       Min divergence: -0.39E-13 at (   1,  10,   9)
       Max VN number:   0.21E+00 at (  14,   7,   4)
 
       Time Step   10500   June 26, 2020  16:23:10
       Step Size:    0.954E-02 s, Total Time:      99.94 s
       Pressure Iterations:      4
       Maximum Velocity Error:  0.93E-02 on Mesh   1 at (   0   7   5)
       Maximum Pressure Error:  0.11E-10 on Mesh   1 at (  35   5   5)
       ---------------------------------------------------------------
       Max CFL number:  0.89E+00 at (  33,   8,   5)
       Max divergence:  0.46E-13 at (  35,   5,   5)
       Min divergence: -0.39E-13 at (  40,   8,   5)
       Max VN number:   0.25E+00 at (  14,   9,   4)
 
       Time Step   10507   June 26, 2020  16:23:10
       Step Size:    0.240E-02 s, Total Time:     100.00 s
       Pressure Iterations:      1
       Maximum Velocity Error:  0.57E-02 on Mesh   1 at (   0   7   4)
       Maximum Pressure Error:  0.89E-11 on Mesh   1 at (  40   3   4)
       ---------------------------------------------------------------
       Max CFL number:  0.22E+00 at (  29,   7,   8)
       Max divergence:  0.20E-13 at (   1,  11,   5)
       Min divergence: -0.22E-13 at (  14,   4,  12)
       Max VN number:   0.52E-01 at (  14,   2,   4)
 


 Time Stepping Wall Clock Time (s):      205.508
 Total Elapsed Wall Clock Time (s):      205.707

STOP: FDS completed successfully (CHID: ribbed_channel_40)
