
 Fire Dynamics Simulator

 Current Date     : June 26, 2020  16:19:18
 Revision         : -AMG
 Revision Date    : Fri Jun 26 15:19:14 2020 +0200
 Compiler         : Intel ifort 19.0.5.281
 Compilation Date : Jun 26, 2020 15:25:32

 MPI Enabled;    Number of MPI Processes:       1
 OpenMP Enabled; Number of OpenMP Threads:      4

 MPI version: 3.1
 MPI library version: Intel(R) MPI Library 2018 Update 1 for Linux* OS


 Job TITLE        : Ribbed channel flow at Re_D=40,000
 Job ID string    : ribbed_channel_160


 Grid Dimensions, Mesh     1

   Cells in the X Direction           160
   Cells in the Y Direction            48
   Cells in the Z Direction            48
   Number of Grid Cells            368640


 Physical Dimensions, Mesh     1

   Length (m)                       1.000
   Width  (m)                       0.300
   Height (m)                       0.300
   Initial Time Step (s)            0.006

Total Number of Grid Cells        368640


 Miscellaneous Parameters

   Simulation Start Time (s)          0.0
   Simulation End Time (s)          100.0
   LES Calculation
   Eddy Viscosity:           Deardorff Model (C_DEARDORFF = 0.10)
   Near-wall Eddy Viscosity: Smagorinsky with Van Driest damping (C_SMAGORINSKY = 0.20)
   Turbulent Prandtl Number:         0.50
   Turbulent Schmidt Number:         0.50
   Ambient Temperature (C):         20.00


 Mass Fraction Transformation Matrix to Convert Species Mixtures (Columns) to Primitive Species (Rows)

                         AIR     
   AIR                   1.000000


 Primitive Species Information

   AIR
   Gas Species
   Molecular Weight (g/mol)            28.01340
   Ambient Density (kg/m^3)            1.165
   Enthalpy of Formation (J/kg)        0.00E+00


 Tracked (Lumped) Species Information

   AIR
   Molecular Weight (g/mol)            28.01340
   Ambient Density (kg/m^3)            1.165
   Initial Mass Fraction               1.000
   Enthalpy of Formation (J/kg)      0.00E+00

   Sub Species                    Mass Fraction     Mole Fraction
   AIR                            1.000000E+00      1.000000E+00
 
     Viscosity (kg/m/s) Ambient,  293 K:  1.20E-05
                                  500 K:  1.20E-05
                                 1000 K:  1.20E-05
                                 1500 K:  1.20E-05
   Therm. Cond. (W/m/K) Ambient,  293 K:  1.76E-02
                                  500 K:  1.76E-02
                                 1000 K:  1.76E-02
                                 1500 K:  1.76E-02
        Enthalpy (J/kg) Ambient,  293 K:  3.05E+05
                                  500 K:  5.19E+05
                                 1000 K:  1.04E+06
                                 1500 K:  1.56E+06
    Spec. Heat (J/kg/K) Ambient,  293 K:  1.04E+03
                                  500 K:  1.04E+03
                                 1000 K:  1.04E+03
                                 1500 K:  1.04E+03
   Diff. Coeff. (m^2/s) Ambient,  293 K:  1.99E-05
                                  500 K:  4.93E-05
                                 1000 K:  1.57E-04
                                 1500 K:  3.07E-04


 Material Information


 Surface Conditions

   0 INERT

   1 wall (DEFAULT)

   2 OPEN
     Passive Vent to Atmosphere

   3 MIRROR
     Symmetry Plane

   4 INTERPOLATED

   5 PERIODIC

   6 HVAC

   7 MASSLESS TRACER

   8 DROPLET

   9 EVACUATION_OUTFLOW
     Normal Velocity (m/s)         0.000

  10 MASSLESS TARGET

  11 PERIODIC WIND


 Device Coordinates

     1 Coords:     -0.396875      0.000000      0.150000, Make: null, ID: Ub, Quantity: U-VELOCITY
     2 Coords:     -0.396875      0.000000      0.009375, Make: null, ID: u_strm_bot, Quantity: U-VELOCITY
     3 Coords:     -0.390625      0.000000      0.009375, Make: null, ID: u_strm_bot, Quantity: U-VELOCITY
     4 Coords:     -0.384375      0.000000      0.009375, Make: null, ID: u_strm_bot, Quantity: U-VELOCITY
     5 Coords:     -0.378125      0.000000      0.009375, Make: null, ID: u_strm_bot, Quantity: U-VELOCITY
     6 Coords:     -0.371875      0.000000      0.009375, Make: null, ID: u_strm_bot, Quantity: U-VELOCITY
     7 Coords:     -0.365625      0.000000      0.009375, Make: null, ID: u_strm_bot, Quantity: U-VELOCITY
     8 Coords:     -0.359375      0.000000      0.009375, Make: null, ID: u_strm_bot, Quantity: U-VELOCITY
     9 Coords:     -0.353125      0.000000      0.009375, Make: null, ID: u_strm_bot, Quantity: U-VELOCITY
    10 Coords:     -0.346875      0.000000      0.009375, Make: null, ID: u_strm_bot, Quantity: U-VELOCITY
    11 Coords:     -0.340625      0.000000      0.009375, Make: null, ID: u_strm_bot, Quantity: U-VELOCITY
    12 Coords:     -0.334375      0.000000      0.009375, Make: null, ID: u_strm_bot, Quantity: U-VELOCITY
    13 Coords:     -0.328125      0.000000      0.009375, Make: null, ID: u_strm_bot, Quantity: U-VELOCITY
    14 Coords:     -0.321875      0.000000      0.009375, Make: null, ID: u_strm_bot, Quantity: U-VELOCITY
    15 Coords:     -0.315625      0.000000      0.009375, Make: null, ID: u_strm_bot, Quantity: U-VELOCITY
    16 Coords:     -0.309375      0.000000      0.009375, Make: null, ID: u_strm_bot, Quantity: U-VELOCITY
    17 Coords:     -0.303125      0.000000      0.009375, Make: null, ID: u_strm_bot, Quantity: U-VELOCITY
    18 Coords:     -0.296875      0.000000      0.009375, Make: null, ID: u_strm_bot, Quantity: U-VELOCITY
    19 Coords:     -0.290625      0.000000      0.009375, Make: null, ID: u_strm_bot, Quantity: U-VELOCITY
    20 Coords:     -0.284375      0.000000      0.009375, Make: null, ID: u_strm_bot, Quantity: U-VELOCITY
    21 Coords:     -0.278125      0.000000      0.009375, Make: null, ID: u_strm_bot, Quantity: U-VELOCITY
    22 Coords:     -0.271875      0.000000      0.009375, Make: null, ID: u_strm_bot, Quantity: U-VELOCITY
    23 Coords:     -0.265625      0.000000      0.009375, Make: null, ID: u_strm_bot, Quantity: U-VELOCITY
    24 Coords:     -0.259375      0.000000      0.009375, Make: null, ID: u_strm_bot, Quantity: U-VELOCITY
    25 Coords:     -0.253125      0.000000      0.009375, Make: null, ID: u_strm_bot, Quantity: U-VELOCITY
    26 Coords:     -0.246875      0.000000      0.009375, Make: null, ID: u_strm_bot, Quantity: U-VELOCITY
    27 Coords:     -0.240625      0.000000      0.009375, Make: null, ID: u_strm_bot, Quantity: U-VELOCITY
    28 Coords:     -0.234375      0.000000      0.009375, Make: null, ID: u_strm_bot, Quantity: U-VELOCITY
    29 Coords:     -0.228125      0.000000      0.009375, Make: null, ID: u_strm_bot, Quantity: U-VELOCITY
    30 Coords:     -0.221875      0.000000      0.009375, Make: null, ID: u_strm_bot, Quantity: U-VELOCITY
    31 Coords:     -0.215625      0.000000      0.009375, Make: null, ID: u_strm_bot, Quantity: U-VELOCITY
    32 Coords:     -0.209375      0.000000      0.009375, Make: null, ID: u_strm_bot, Quantity: U-VELOCITY
    33 Coords:     -0.203125      0.000000      0.009375, Make: null, ID: u_strm_bot, Quantity: U-VELOCITY
    34 Coords:     -0.196875      0.000000      0.009375, Make: null, ID: u_strm_bot, Quantity: U-VELOCITY
    35 Coords:     -0.190625      0.000000      0.009375, Make: null, ID: u_strm_bot, Quantity: U-VELOCITY
    36 Coords:     -0.184375      0.000000      0.009375, Make: null, ID: u_strm_bot, Quantity: U-VELOCITY
    37 Coords:     -0.178125      0.000000      0.009375, Make: null, ID: u_strm_bot, Quantity: U-VELOCITY
    38 Coords:     -0.171875      0.000000      0.009375, Make: null, ID: u_strm_bot, Quantity: U-VELOCITY
    39 Coords:     -0.165625      0.000000      0.009375, Make: null, ID: u_strm_bot, Quantity: U-VELOCITY
    40 Coords:     -0.159375      0.000000      0.009375, Make: null, ID: u_strm_bot, Quantity: U-VELOCITY
    41 Coords:     -0.153125      0.000000      0.009375, Make: null, ID: u_strm_bot, Quantity: U-VELOCITY
    42 Coords:     -0.146875      0.000000      0.009375, Make: null, ID: u_strm_bot, Quantity: U-VELOCITY
    43 Coords:     -0.140625      0.000000      0.009375, Make: null, ID: u_strm_bot, Quantity: U-VELOCITY
    44 Coords:     -0.134375      0.000000      0.009375, Make: null, ID: u_strm_bot, Quantity: U-VELOCITY
    45 Coords:     -0.128125      0.000000      0.009375, Make: null, ID: u_strm_bot, Quantity: U-VELOCITY
    46 Coords:     -0.121875      0.000000      0.009375, Make: null, ID: u_strm_bot, Quantity: U-VELOCITY
    47 Coords:     -0.115625      0.000000      0.009375, Make: null, ID: u_strm_bot, Quantity: U-VELOCITY
    48 Coords:     -0.109375      0.000000      0.009375, Make: null, ID: u_strm_bot, Quantity: U-VELOCITY
    49 Coords:     -0.103125      0.000000      0.009375, Make: null, ID: u_strm_bot, Quantity: U-VELOCITY
    50 Coords:     -0.096875      0.000000      0.009375, Make: null, ID: u_strm_bot, Quantity: U-VELOCITY
    51 Coords:     -0.090625      0.000000      0.009375, Make: null, ID: u_strm_bot, Quantity: U-VELOCITY
    52 Coords:     -0.084375      0.000000      0.009375, Make: null, ID: u_strm_bot, Quantity: U-VELOCITY
    53 Coords:     -0.078125      0.000000      0.009375, Make: null, ID: u_strm_bot, Quantity: U-VELOCITY
    54 Coords:     -0.071875      0.000000      0.009375, Make: null, ID: u_strm_bot, Quantity: U-VELOCITY
    55 Coords:     -0.065625      0.000000      0.009375, Make: null, ID: u_strm_bot, Quantity: U-VELOCITY
    56 Coords:     -0.059375      0.000000      0.009375, Make: null, ID: u_strm_bot, Quantity: U-VELOCITY
    57 Coords:     -0.053125      0.000000      0.009375, Make: null, ID: u_strm_bot, Quantity: U-VELOCITY
    58 Coords:     -0.046875      0.000000      0.009375, Make: null, ID: u_strm_bot, Quantity: U-VELOCITY
    59 Coords:     -0.040625      0.000000      0.009375, Make: null, ID: u_strm_bot, Quantity: U-VELOCITY
    60 Coords:     -0.034375      0.000000      0.009375, Make: null, ID: u_strm_bot, Quantity: U-VELOCITY
    61 Coords:     -0.028125      0.000000      0.009375, Make: null, ID: u_strm_bot, Quantity: U-VELOCITY
    62 Coords:     -0.021875      0.000000      0.009375, Make: null, ID: u_strm_bot, Quantity: U-VELOCITY
    63 Coords:     -0.015625      0.000000      0.009375, Make: null, ID: u_strm_bot, Quantity: U-VELOCITY
    64 Coords:     -0.009375      0.000000      0.009375, Make: null, ID: u_strm_bot, Quantity: U-VELOCITY
    65 Coords:     -0.003125      0.000000      0.009375, Make: null, ID: u_strm_bot, Quantity: U-VELOCITY
    66 Coords:      0.003125      0.000000      0.009375, Make: null, ID: u_strm_bot, Quantity: U-VELOCITY
    67 Coords:      0.009375      0.000000      0.009375, Make: null, ID: u_strm_bot, Quantity: U-VELOCITY
    68 Coords:      0.015625      0.000000      0.009375, Make: null, ID: u_strm_bot, Quantity: U-VELOCITY
    69 Coords:      0.021875      0.000000      0.009375, Make: null, ID: u_strm_bot, Quantity: U-VELOCITY
    70 Coords:      0.028125      0.000000      0.009375, Make: null, ID: u_strm_bot, Quantity: U-VELOCITY
    71 Coords:      0.034375      0.000000      0.009375, Make: null, ID: u_strm_bot, Quantity: U-VELOCITY
    72 Coords:      0.040625      0.000000      0.009375, Make: null, ID: u_strm_bot, Quantity: U-VELOCITY
    73 Coords:      0.046875      0.000000      0.009375, Make: null, ID: u_strm_bot, Quantity: U-VELOCITY
    74 Coords:      0.053125      0.000000      0.009375, Make: null, ID: u_strm_bot, Quantity: U-VELOCITY
    75 Coords:      0.059375      0.000000      0.009375, Make: null, ID: u_strm_bot, Quantity: U-VELOCITY
    76 Coords:      0.065625      0.000000      0.009375, Make: null, ID: u_strm_bot, Quantity: U-VELOCITY
    77 Coords:      0.071875      0.000000      0.009375, Make: null, ID: u_strm_bot, Quantity: U-VELOCITY
    78 Coords:      0.078125      0.000000      0.009375, Make: null, ID: u_strm_bot, Quantity: U-VELOCITY
    79 Coords:      0.084375      0.000000      0.009375, Make: null, ID: u_strm_bot, Quantity: U-VELOCITY
    80 Coords:      0.090625      0.000000      0.009375, Make: null, ID: u_strm_bot, Quantity: U-VELOCITY
    81 Coords:      0.096875      0.000000      0.009375, Make: null, ID: u_strm_bot, Quantity: U-VELOCITY
    82 Coords:      0.103125      0.000000      0.009375, Make: null, ID: u_strm_bot, Quantity: U-VELOCITY
    83 Coords:      0.109375      0.000000      0.009375, Make: null, ID: u_strm_bot, Quantity: U-VELOCITY
    84 Coords:      0.115625      0.000000      0.009375, Make: null, ID: u_strm_bot, Quantity: U-VELOCITY
    85 Coords:      0.121875      0.000000      0.009375, Make: null, ID: u_strm_bot, Quantity: U-VELOCITY
    86 Coords:      0.128125      0.000000      0.009375, Make: null, ID: u_strm_bot, Quantity: U-VELOCITY
    87 Coords:      0.134375      0.000000      0.009375, Make: null, ID: u_strm_bot, Quantity: U-VELOCITY
    88 Coords:      0.140625      0.000000      0.009375, Make: null, ID: u_strm_bot, Quantity: U-VELOCITY
    89 Coords:      0.146875      0.000000      0.009375, Make: null, ID: u_strm_bot, Quantity: U-VELOCITY
    90 Coords:      0.153125      0.000000      0.009375, Make: null, ID: u_strm_bot, Quantity: U-VELOCITY
    91 Coords:      0.159375      0.000000      0.009375, Make: null, ID: u_strm_bot, Quantity: U-VELOCITY
    92 Coords:      0.165625      0.000000      0.009375, Make: null, ID: u_strm_bot, Quantity: U-VELOCITY
    93 Coords:      0.171875      0.000000      0.009375, Make: null, ID: u_strm_bot, Quantity: U-VELOCITY
    94 Coords:      0.178125      0.000000      0.009375, Make: null, ID: u_strm_bot, Quantity: U-VELOCITY
    95 Coords:      0.184375      0.000000      0.009375, Make: null, ID: u_strm_bot, Quantity: U-VELOCITY
    96 Coords:      0.190625      0.000000      0.009375, Make: null, ID: u_strm_bot, Quantity: U-VELOCITY
    97 Coords:      0.196875      0.000000      0.009375, Make: null, ID: u_strm_bot, Quantity: U-VELOCITY
    98 Coords:      0.203125      0.000000      0.009375, Make: null, ID: u_strm_bot, Quantity: U-VELOCITY
    99 Coords:      0.209375      0.000000      0.009375, Make: null, ID: u_strm_bot, Quantity: U-VELOCITY
   100 Coords:      0.215625      0.000000      0.009375, Make: null, ID: u_strm_bot, Quantity: U-VELOCITY
   101 Coords:      0.221875      0.000000      0.009375, Make: null, ID: u_strm_bot, Quantity: U-VELOCITY
   102 Coords:      0.228125      0.000000      0.009375, Make: null, ID: u_strm_bot, Quantity: U-VELOCITY
   103 Coords:      0.234375      0.000000      0.009375, Make: null, ID: u_strm_bot, Quantity: U-VELOCITY
   104 Coords:      0.240625      0.000000      0.009375, Make: null, ID: u_strm_bot, Quantity: U-VELOCITY
   105 Coords:      0.246875      0.000000      0.009375, Make: null, ID: u_strm_bot, Quantity: U-VELOCITY
   106 Coords:      0.253125      0.000000      0.009375, Make: null, ID: u_strm_bot, Quantity: U-VELOCITY
   107 Coords:      0.259375      0.000000      0.009375, Make: null, ID: u_strm_bot, Quantity: U-VELOCITY
   108 Coords:      0.265625      0.000000      0.009375, Make: null, ID: u_strm_bot, Quantity: U-VELOCITY
   109 Coords:      0.271875      0.000000      0.009375, Make: null, ID: u_strm_bot, Quantity: U-VELOCITY
   110 Coords:      0.278125      0.000000      0.009375, Make: null, ID: u_strm_bot, Quantity: U-VELOCITY
   111 Coords:      0.284375      0.000000      0.009375, Make: null, ID: u_strm_bot, Quantity: U-VELOCITY
   112 Coords:      0.290625      0.000000      0.009375, Make: null, ID: u_strm_bot, Quantity: U-VELOCITY
   113 Coords:      0.296875      0.000000      0.009375, Make: null, ID: u_strm_bot, Quantity: U-VELOCITY
   114 Coords:      0.303125      0.000000      0.009375, Make: null, ID: u_strm_bot, Quantity: U-VELOCITY
   115 Coords:      0.309375      0.000000      0.009375, Make: null, ID: u_strm_bot, Quantity: U-VELOCITY
   116 Coords:      0.315625      0.000000      0.009375, Make: null, ID: u_strm_bot, Quantity: U-VELOCITY
   117 Coords:      0.321875      0.000000      0.009375, Make: null, ID: u_strm_bot, Quantity: U-VELOCITY
   118 Coords:      0.328125      0.000000      0.009375, Make: null, ID: u_strm_bot, Quantity: U-VELOCITY
   119 Coords:      0.334375      0.000000      0.009375, Make: null, ID: u_strm_bot, Quantity: U-VELOCITY
   120 Coords:      0.340625      0.000000      0.009375, Make: null, ID: u_strm_bot, Quantity: U-VELOCITY
   121 Coords:      0.346875      0.000000      0.009375, Make: null, ID: u_strm_bot, Quantity: U-VELOCITY
   122 Coords:      0.353125      0.000000      0.009375, Make: null, ID: u_strm_bot, Quantity: U-VELOCITY
   123 Coords:      0.359375      0.000000      0.009375, Make: null, ID: u_strm_bot, Quantity: U-VELOCITY
   124 Coords:      0.365625      0.000000      0.009375, Make: null, ID: u_strm_bot, Quantity: U-VELOCITY
   125 Coords:      0.371875      0.000000      0.009375, Make: null, ID: u_strm_bot, Quantity: U-VELOCITY
   126 Coords:      0.378125      0.000000      0.009375, Make: null, ID: u_strm_bot, Quantity: U-VELOCITY
   127 Coords:      0.384375      0.000000      0.009375, Make: null, ID: u_strm_bot, Quantity: U-VELOCITY
   128 Coords:      0.390625      0.000000      0.009375, Make: null, ID: u_strm_bot, Quantity: U-VELOCITY
   129 Coords:      0.396875      0.000000      0.009375, Make: null, ID: u_strm_bot, Quantity: U-VELOCITY
   130 Coords:      0.403125      0.000000      0.009375, Make: null, ID: u_strm_bot, Quantity: U-VELOCITY
   131 Coords:      0.409375      0.000000      0.009375, Make: null, ID: u_strm_bot, Quantity: U-VELOCITY
   132 Coords:      0.415625      0.000000      0.009375, Make: null, ID: u_strm_bot, Quantity: U-VELOCITY
   133 Coords:      0.421875      0.000000      0.009375, Make: null, ID: u_strm_bot, Quantity: U-VELOCITY
   134 Coords:      0.428125      0.000000      0.009375, Make: null, ID: u_strm_bot, Quantity: U-VELOCITY
   135 Coords:      0.434375      0.000000      0.009375, Make: null, ID: u_strm_bot, Quantity: U-VELOCITY
   136 Coords:      0.440625      0.000000      0.009375, Make: null, ID: u_strm_bot, Quantity: U-VELOCITY
   137 Coords:      0.446875      0.000000      0.009375, Make: null, ID: u_strm_bot, Quantity: U-VELOCITY
   138 Coords:      0.453125      0.000000      0.009375, Make: null, ID: u_strm_bot, Quantity: U-VELOCITY
   139 Coords:      0.459375      0.000000      0.009375, Make: null, ID: u_strm_bot, Quantity: U-VELOCITY
   140 Coords:      0.465625      0.000000      0.009375, Make: null, ID: u_strm_bot, Quantity: U-VELOCITY
   141 Coords:      0.471875      0.000000      0.009375, Make: null, ID: u_strm_bot, Quantity: U-VELOCITY
   142 Coords:      0.478125      0.000000      0.009375, Make: null, ID: u_strm_bot, Quantity: U-VELOCITY
   143 Coords:      0.484375      0.000000      0.009375, Make: null, ID: u_strm_bot, Quantity: U-VELOCITY
   144 Coords:      0.490625      0.000000      0.009375, Make: null, ID: u_strm_bot, Quantity: U-VELOCITY
   145 Coords:      0.496875      0.000000      0.009375, Make: null, ID: u_strm_bot, Quantity: U-VELOCITY
   146 Coords:      0.503125      0.000000      0.009375, Make: null, ID: u_strm_bot, Quantity: U-VELOCITY
   147 Coords:      0.509375      0.000000      0.009375, Make: null, ID: u_strm_bot, Quantity: U-VELOCITY
   148 Coords:      0.515625      0.000000      0.009375, Make: null, ID: u_strm_bot, Quantity: U-VELOCITY
   149 Coords:      0.521875      0.000000      0.009375, Make: null, ID: u_strm_bot, Quantity: U-VELOCITY
   150 Coords:      0.528125      0.000000      0.009375, Make: null, ID: u_strm_bot, Quantity: U-VELOCITY
   151 Coords:      0.534375      0.000000      0.009375, Make: null, ID: u_strm_bot, Quantity: U-VELOCITY
   152 Coords:      0.540625      0.000000      0.009375, Make: null, ID: u_strm_bot, Quantity: U-VELOCITY
   153 Coords:      0.546875      0.000000      0.009375, Make: null, ID: u_strm_bot, Quantity: U-VELOCITY
   154 Coords:      0.553125      0.000000      0.009375, Make: null, ID: u_strm_bot, Quantity: U-VELOCITY
   155 Coords:      0.559375      0.000000      0.009375, Make: null, ID: u_strm_bot, Quantity: U-VELOCITY
   156 Coords:      0.565625      0.000000      0.009375, Make: null, ID: u_strm_bot, Quantity: U-VELOCITY
   157 Coords:      0.571875      0.000000      0.009375, Make: null, ID: u_strm_bot, Quantity: U-VELOCITY
   158 Coords:      0.578125      0.000000      0.009375, Make: null, ID: u_strm_bot, Quantity: U-VELOCITY
   159 Coords:      0.584375      0.000000      0.009375, Make: null, ID: u_strm_bot, Quantity: U-VELOCITY
   160 Coords:      0.590625      0.000000      0.009375, Make: null, ID: u_strm_bot, Quantity: U-VELOCITY
   161 Coords:      0.596875      0.000000      0.009375, Make: null, ID: u_strm_bot, Quantity: U-VELOCITY
   162 Coords:     -0.046875      0.000000      0.109375, Make: null, ID: u_strm_rib, Quantity: U-VELOCITY
   163 Coords:     -0.040625      0.000000      0.109375, Make: null, ID: u_strm_rib, Quantity: U-VELOCITY
   164 Coords:     -0.034375      0.000000      0.109375, Make: null, ID: u_strm_rib, Quantity: U-VELOCITY
   165 Coords:     -0.028125      0.000000      0.109375, Make: null, ID: u_strm_rib, Quantity: U-VELOCITY
   166 Coords:     -0.021875      0.000000      0.109375, Make: null, ID: u_strm_rib, Quantity: U-VELOCITY
   167 Coords:     -0.015625      0.000000      0.109375, Make: null, ID: u_strm_rib, Quantity: U-VELOCITY
   168 Coords:     -0.009375      0.000000      0.109375, Make: null, ID: u_strm_rib, Quantity: U-VELOCITY
   169 Coords:     -0.003125      0.000000      0.109375, Make: null, ID: u_strm_rib, Quantity: U-VELOCITY
   170 Coords:      0.003125      0.000000      0.109375, Make: null, ID: u_strm_rib, Quantity: U-VELOCITY
   171 Coords:      0.009375      0.000000      0.109375, Make: null, ID: u_strm_rib, Quantity: U-VELOCITY
   172 Coords:      0.015625      0.000000      0.109375, Make: null, ID: u_strm_rib, Quantity: U-VELOCITY
   173 Coords:      0.021875      0.000000      0.109375, Make: null, ID: u_strm_rib, Quantity: U-VELOCITY
   174 Coords:      0.028125      0.000000      0.109375, Make: null, ID: u_strm_rib, Quantity: U-VELOCITY
   175 Coords:      0.034375      0.000000      0.109375, Make: null, ID: u_strm_rib, Quantity: U-VELOCITY
   176 Coords:      0.040625      0.000000      0.109375, Make: null, ID: u_strm_rib, Quantity: U-VELOCITY
   177 Coords:      0.046875      0.000000      0.109375, Make: null, ID: u_strm_rib, Quantity: U-VELOCITY
   178 Coords:     -0.396875      0.000000      0.009375, Make: null, ID: mu_strm_bot, Quantity: VISCOSITY
   179 Coords:     -0.390625      0.000000      0.009375, Make: null, ID: mu_strm_bot, Quantity: VISCOSITY
   180 Coords:     -0.384375      0.000000      0.009375, Make: null, ID: mu_strm_bot, Quantity: VISCOSITY
   181 Coords:     -0.378125      0.000000      0.009375, Make: null, ID: mu_strm_bot, Quantity: VISCOSITY
   182 Coords:     -0.371875      0.000000      0.009375, Make: null, ID: mu_strm_bot, Quantity: VISCOSITY
   183 Coords:     -0.365625      0.000000      0.009375, Make: null, ID: mu_strm_bot, Quantity: VISCOSITY
   184 Coords:     -0.359375      0.000000      0.009375, Make: null, ID: mu_strm_bot, Quantity: VISCOSITY
   185 Coords:     -0.353125      0.000000      0.009375, Make: null, ID: mu_strm_bot, Quantity: VISCOSITY
   186 Coords:     -0.346875      0.000000      0.009375, Make: null, ID: mu_strm_bot, Quantity: VISCOSITY
   187 Coords:     -0.340625      0.000000      0.009375, Make: null, ID: mu_strm_bot, Quantity: VISCOSITY
   188 Coords:     -0.334375      0.000000      0.009375, Make: null, ID: mu_strm_bot, Quantity: VISCOSITY
   189 Coords:     -0.328125      0.000000      0.009375, Make: null, ID: mu_strm_bot, Quantity: VISCOSITY
   190 Coords:     -0.321875      0.000000      0.009375, Make: null, ID: mu_strm_bot, Quantity: VISCOSITY
   191 Coords:     -0.315625      0.000000      0.009375, Make: null, ID: mu_strm_bot, Quantity: VISCOSITY
   192 Coords:     -0.309375      0.000000      0.009375, Make: null, ID: mu_strm_bot, Quantity: VISCOSITY
   193 Coords:     -0.303125      0.000000      0.009375, Make: null, ID: mu_strm_bot, Quantity: VISCOSITY
   194 Coords:     -0.296875      0.000000      0.009375, Make: null, ID: mu_strm_bot, Quantity: VISCOSITY
   195 Coords:     -0.290625      0.000000      0.009375, Make: null, ID: mu_strm_bot, Quantity: VISCOSITY
   196 Coords:     -0.284375      0.000000      0.009375, Make: null, ID: mu_strm_bot, Quantity: VISCOSITY
   197 Coords:     -0.278125      0.000000      0.009375, Make: null, ID: mu_strm_bot, Quantity: VISCOSITY
   198 Coords:     -0.271875      0.000000      0.009375, Make: null, ID: mu_strm_bot, Quantity: VISCOSITY
   199 Coords:     -0.265625      0.000000      0.009375, Make: null, ID: mu_strm_bot, Quantity: VISCOSITY
   200 Coords:     -0.259375      0.000000      0.009375, Make: null, ID: mu_strm_bot, Quantity: VISCOSITY
   201 Coords:     -0.253125      0.000000      0.009375, Make: null, ID: mu_strm_bot, Quantity: VISCOSITY
   202 Coords:     -0.246875      0.000000      0.009375, Make: null, ID: mu_strm_bot, Quantity: VISCOSITY
   203 Coords:     -0.240625      0.000000      0.009375, Make: null, ID: mu_strm_bot, Quantity: VISCOSITY
   204 Coords:     -0.234375      0.000000      0.009375, Make: null, ID: mu_strm_bot, Quantity: VISCOSITY
   205 Coords:     -0.228125      0.000000      0.009375, Make: null, ID: mu_strm_bot, Quantity: VISCOSITY
   206 Coords:     -0.221875      0.000000      0.009375, Make: null, ID: mu_strm_bot, Quantity: VISCOSITY
   207 Coords:     -0.215625      0.000000      0.009375, Make: null, ID: mu_strm_bot, Quantity: VISCOSITY
   208 Coords:     -0.209375      0.000000      0.009375, Make: null, ID: mu_strm_bot, Quantity: VISCOSITY
   209 Coords:     -0.203125      0.000000      0.009375, Make: null, ID: mu_strm_bot, Quantity: VISCOSITY
   210 Coords:     -0.196875      0.000000      0.009375, Make: null, ID: mu_strm_bot, Quantity: VISCOSITY
   211 Coords:     -0.190625      0.000000      0.009375, Make: null, ID: mu_strm_bot, Quantity: VISCOSITY
   212 Coords:     -0.184375      0.000000      0.009375, Make: null, ID: mu_strm_bot, Quantity: VISCOSITY
   213 Coords:     -0.178125      0.000000      0.009375, Make: null, ID: mu_strm_bot, Quantity: VISCOSITY
   214 Coords:     -0.171875      0.000000      0.009375, Make: null, ID: mu_strm_bot, Quantity: VISCOSITY
   215 Coords:     -0.165625      0.000000      0.009375, Make: null, ID: mu_strm_bot, Quantity: VISCOSITY
   216 Coords:     -0.159375      0.000000      0.009375, Make: null, ID: mu_strm_bot, Quantity: VISCOSITY
   217 Coords:     -0.153125      0.000000      0.009375, Make: null, ID: mu_strm_bot, Quantity: VISCOSITY
   218 Coords:     -0.146875      0.000000      0.009375, Make: null, ID: mu_strm_bot, Quantity: VISCOSITY
   219 Coords:     -0.140625      0.000000      0.009375, Make: null, ID: mu_strm_bot, Quantity: VISCOSITY
   220 Coords:     -0.134375      0.000000      0.009375, Make: null, ID: mu_strm_bot, Quantity: VISCOSITY
   221 Coords:     -0.128125      0.000000      0.009375, Make: null, ID: mu_strm_bot, Quantity: VISCOSITY
   222 Coords:     -0.121875      0.000000      0.009375, Make: null, ID: mu_strm_bot, Quantity: VISCOSITY
   223 Coords:     -0.115625      0.000000      0.009375, Make: null, ID: mu_strm_bot, Quantity: VISCOSITY
   224 Coords:     -0.109375      0.000000      0.009375, Make: null, ID: mu_strm_bot, Quantity: VISCOSITY
   225 Coords:     -0.103125      0.000000      0.009375, Make: null, ID: mu_strm_bot, Quantity: VISCOSITY
   226 Coords:     -0.096875      0.000000      0.009375, Make: null, ID: mu_strm_bot, Quantity: VISCOSITY
   227 Coords:     -0.090625      0.000000      0.009375, Make: null, ID: mu_strm_bot, Quantity: VISCOSITY
   228 Coords:     -0.084375      0.000000      0.009375, Make: null, ID: mu_strm_bot, Quantity: VISCOSITY
   229 Coords:     -0.078125      0.000000      0.009375, Make: null, ID: mu_strm_bot, Quantity: VISCOSITY
   230 Coords:     -0.071875      0.000000      0.009375, Make: null, ID: mu_strm_bot, Quantity: VISCOSITY
   231 Coords:     -0.065625      0.000000      0.009375, Make: null, ID: mu_strm_bot, Quantity: VISCOSITY
   232 Coords:     -0.059375      0.000000      0.009375, Make: null, ID: mu_strm_bot, Quantity: VISCOSITY
   233 Coords:     -0.053125      0.000000      0.009375, Make: null, ID: mu_strm_bot, Quantity: VISCOSITY
   234 Coords:     -0.046875      0.000000      0.009375, Make: null, ID: mu_strm_bot, Quantity: VISCOSITY
   235 Coords:     -0.040625      0.000000      0.009375, Make: null, ID: mu_strm_bot, Quantity: VISCOSITY
   236 Coords:     -0.034375      0.000000      0.009375, Make: null, ID: mu_strm_bot, Quantity: VISCOSITY
   237 Coords:     -0.028125      0.000000      0.009375, Make: null, ID: mu_strm_bot, Quantity: VISCOSITY
   238 Coords:     -0.021875      0.000000      0.009375, Make: null, ID: mu_strm_bot, Quantity: VISCOSITY
   239 Coords:     -0.015625      0.000000      0.009375, Make: null, ID: mu_strm_bot, Quantity: VISCOSITY
   240 Coords:     -0.009375      0.000000      0.009375, Make: null, ID: mu_strm_bot, Quantity: VISCOSITY
   241 Coords:     -0.003125      0.000000      0.009375, Make: null, ID: mu_strm_bot, Quantity: VISCOSITY
   242 Coords:      0.003125      0.000000      0.009375, Make: null, ID: mu_strm_bot, Quantity: VISCOSITY
   243 Coords:      0.009375      0.000000      0.009375, Make: null, ID: mu_strm_bot, Quantity: VISCOSITY
   244 Coords:      0.015625      0.000000      0.009375, Make: null, ID: mu_strm_bot, Quantity: VISCOSITY
   245 Coords:      0.021875      0.000000      0.009375, Make: null, ID: mu_strm_bot, Quantity: VISCOSITY
   246 Coords:      0.028125      0.000000      0.009375, Make: null, ID: mu_strm_bot, Quantity: VISCOSITY
   247 Coords:      0.034375      0.000000      0.009375, Make: null, ID: mu_strm_bot, Quantity: VISCOSITY
   248 Coords:      0.040625      0.000000      0.009375, Make: null, ID: mu_strm_bot, Quantity: VISCOSITY
   249 Coords:      0.046875      0.000000      0.009375, Make: null, ID: mu_strm_bot, Quantity: VISCOSITY
   250 Coords:      0.053125      0.000000      0.009375, Make: null, ID: mu_strm_bot, Quantity: VISCOSITY
   251 Coords:      0.059375      0.000000      0.009375, Make: null, ID: mu_strm_bot, Quantity: VISCOSITY
   252 Coords:      0.065625      0.000000      0.009375, Make: null, ID: mu_strm_bot, Quantity: VISCOSITY
   253 Coords:      0.071875      0.000000      0.009375, Make: null, ID: mu_strm_bot, Quantity: VISCOSITY
   254 Coords:      0.078125      0.000000      0.009375, Make: null, ID: mu_strm_bot, Quantity: VISCOSITY
   255 Coords:      0.084375      0.000000      0.009375, Make: null, ID: mu_strm_bot, Quantity: VISCOSITY
   256 Coords:      0.090625      0.000000      0.009375, Make: null, ID: mu_strm_bot, Quantity: VISCOSITY
   257 Coords:      0.096875      0.000000      0.009375, Make: null, ID: mu_strm_bot, Quantity: VISCOSITY
   258 Coords:      0.103125      0.000000      0.009375, Make: null, ID: mu_strm_bot, Quantity: VISCOSITY
   259 Coords:      0.109375      0.000000      0.009375, Make: null, ID: mu_strm_bot, Quantity: VISCOSITY
   260 Coords:      0.115625      0.000000      0.009375, Make: null, ID: mu_strm_bot, Quantity: VISCOSITY
   261 Coords:      0.121875      0.000000      0.009375, Make: null, ID: mu_strm_bot, Quantity: VISCOSITY
   262 Coords:      0.128125      0.000000      0.009375, Make: null, ID: mu_strm_bot, Quantity: VISCOSITY
   263 Coords:      0.134375      0.000000      0.009375, Make: null, ID: mu_strm_bot, Quantity: VISCOSITY
   264 Coords:      0.140625      0.000000      0.009375, Make: null, ID: mu_strm_bot, Quantity: VISCOSITY
   265 Coords:      0.146875      0.000000      0.009375, Make: null, ID: mu_strm_bot, Quantity: VISCOSITY
   266 Coords:      0.153125      0.000000      0.009375, Make: null, ID: mu_strm_bot, Quantity: VISCOSITY
   267 Coords:      0.159375      0.000000      0.009375, Make: null, ID: mu_strm_bot, Quantity: VISCOSITY
   268 Coords:      0.165625      0.000000      0.009375, Make: null, ID: mu_strm_bot, Quantity: VISCOSITY
   269 Coords:      0.171875      0.000000      0.009375, Make: null, ID: mu_strm_bot, Quantity: VISCOSITY
   270 Coords:      0.178125      0.000000      0.009375, Make: null, ID: mu_strm_bot, Quantity: VISCOSITY
   271 Coords:      0.184375      0.000000      0.009375, Make: null, ID: mu_strm_bot, Quantity: VISCOSITY
   272 Coords:      0.190625      0.000000      0.009375, Make: null, ID: mu_strm_bot, Quantity: VISCOSITY
   273 Coords:      0.196875      0.000000      0.009375, Make: null, ID: mu_strm_bot, Quantity: VISCOSITY
   274 Coords:      0.203125      0.000000      0.009375, Make: null, ID: mu_strm_bot, Quantity: VISCOSITY
   275 Coords:      0.209375      0.000000      0.009375, Make: null, ID: mu_strm_bot, Quantity: VISCOSITY
   276 Coords:      0.215625      0.000000      0.009375, Make: null, ID: mu_strm_bot, Quantity: VISCOSITY
   277 Coords:      0.221875      0.000000      0.009375, Make: null, ID: mu_strm_bot, Quantity: VISCOSITY
   278 Coords:      0.228125      0.000000      0.009375, Make: null, ID: mu_strm_bot, Quantity: VISCOSITY
   279 Coords:      0.234375      0.000000      0.009375, Make: null, ID: mu_strm_bot, Quantity: VISCOSITY
   280 Coords:      0.240625      0.000000      0.009375, Make: null, ID: mu_strm_bot, Quantity: VISCOSITY
   281 Coords:      0.246875      0.000000      0.009375, Make: null, ID: mu_strm_bot, Quantity: VISCOSITY
   282 Coords:      0.253125      0.000000      0.009375, Make: null, ID: mu_strm_bot, Quantity: VISCOSITY
   283 Coords:      0.259375      0.000000      0.009375, Make: null, ID: mu_strm_bot, Quantity: VISCOSITY
   284 Coords:      0.265625      0.000000      0.009375, Make: null, ID: mu_strm_bot, Quantity: VISCOSITY
   285 Coords:      0.271875      0.000000      0.009375, Make: null, ID: mu_strm_bot, Quantity: VISCOSITY
   286 Coords:      0.278125      0.000000      0.009375, Make: null, ID: mu_strm_bot, Quantity: VISCOSITY
   287 Coords:      0.284375      0.000000      0.009375, Make: null, ID: mu_strm_bot, Quantity: VISCOSITY
   288 Coords:      0.290625      0.000000      0.009375, Make: null, ID: mu_strm_bot, Quantity: VISCOSITY
   289 Coords:      0.296875      0.000000      0.009375, Make: null, ID: mu_strm_bot, Quantity: VISCOSITY
   290 Coords:      0.303125      0.000000      0.009375, Make: null, ID: mu_strm_bot, Quantity: VISCOSITY
   291 Coords:      0.309375      0.000000      0.009375, Make: null, ID: mu_strm_bot, Quantity: VISCOSITY
   292 Coords:      0.315625      0.000000      0.009375, Make: null, ID: mu_strm_bot, Quantity: VISCOSITY
   293 Coords:      0.321875      0.000000      0.009375, Make: null, ID: mu_strm_bot, Quantity: VISCOSITY
   294 Coords:      0.328125      0.000000      0.009375, Make: null, ID: mu_strm_bot, Quantity: VISCOSITY
   295 Coords:      0.334375      0.000000      0.009375, Make: null, ID: mu_strm_bot, Quantity: VISCOSITY
   296 Coords:      0.340625      0.000000      0.009375, Make: null, ID: mu_strm_bot, Quantity: VISCOSITY
   297 Coords:      0.346875      0.000000      0.009375, Make: null, ID: mu_strm_bot, Quantity: VISCOSITY
   298 Coords:      0.353125      0.000000      0.009375, Make: null, ID: mu_strm_bot, Quantity: VISCOSITY
   299 Coords:      0.359375      0.000000      0.009375, Make: null, ID: mu_strm_bot, Quantity: VISCOSITY
   300 Coords:      0.365625      0.000000      0.009375, Make: null, ID: mu_strm_bot, Quantity: VISCOSITY
   301 Coords:      0.371875      0.000000      0.009375, Make: null, ID: mu_strm_bot, Quantity: VISCOSITY
   302 Coords:      0.378125      0.000000      0.009375, Make: null, ID: mu_strm_bot, Quantity: VISCOSITY
   303 Coords:      0.384375      0.000000      0.009375, Make: null, ID: mu_strm_bot, Quantity: VISCOSITY
   304 Coords:      0.390625      0.000000      0.009375, Make: null, ID: mu_strm_bot, Quantity: VISCOSITY
   305 Coords:      0.396875      0.000000      0.009375, Make: null, ID: mu_strm_bot, Quantity: VISCOSITY
   306 Coords:      0.403125      0.000000      0.009375, Make: null, ID: mu_strm_bot, Quantity: VISCOSITY
   307 Coords:      0.409375      0.000000      0.009375, Make: null, ID: mu_strm_bot, Quantity: VISCOSITY
   308 Coords:      0.415625      0.000000      0.009375, Make: null, ID: mu_strm_bot, Quantity: VISCOSITY
   309 Coords:      0.421875      0.000000      0.009375, Make: null, ID: mu_strm_bot, Quantity: VISCOSITY
   310 Coords:      0.428125      0.000000      0.009375, Make: null, ID: mu_strm_bot, Quantity: VISCOSITY
   311 Coords:      0.434375      0.000000      0.009375, Make: null, ID: mu_strm_bot, Quantity: VISCOSITY
   312 Coords:      0.440625      0.000000      0.009375, Make: null, ID: mu_strm_bot, Quantity: VISCOSITY
   313 Coords:      0.446875      0.000000      0.009375, Make: null, ID: mu_strm_bot, Quantity: VISCOSITY
   314 Coords:      0.453125      0.000000      0.009375, Make: null, ID: mu_strm_bot, Quantity: VISCOSITY
   315 Coords:      0.459375      0.000000      0.009375, Make: null, ID: mu_strm_bot, Quantity: VISCOSITY
   316 Coords:      0.465625      0.000000      0.009375, Make: null, ID: mu_strm_bot, Quantity: VISCOSITY
   317 Coords:      0.471875      0.000000      0.009375, Make: null, ID: mu_strm_bot, Quantity: VISCOSITY
   318 Coords:      0.478125      0.000000      0.009375, Make: null, ID: mu_strm_bot, Quantity: VISCOSITY
   319 Coords:      0.484375      0.000000      0.009375, Make: null, ID: mu_strm_bot, Quantity: VISCOSITY
   320 Coords:      0.490625      0.000000      0.009375, Make: null, ID: mu_strm_bot, Quantity: VISCOSITY
   321 Coords:      0.496875      0.000000      0.009375, Make: null, ID: mu_strm_bot, Quantity: VISCOSITY
   322 Coords:      0.503125      0.000000      0.009375, Make: null, ID: mu_strm_bot, Quantity: VISCOSITY
   323 Coords:      0.509375      0.000000      0.009375, Make: null, ID: mu_strm_bot, Quantity: VISCOSITY
   324 Coords:      0.515625      0.000000      0.009375, Make: null, ID: mu_strm_bot, Quantity: VISCOSITY
   325 Coords:      0.521875      0.000000      0.009375, Make: null, ID: mu_strm_bot, Quantity: VISCOSITY
   326 Coords:      0.528125      0.000000      0.009375, Make: null, ID: mu_strm_bot, Quantity: VISCOSITY
   327 Coords:      0.534375      0.000000      0.009375, Make: null, ID: mu_strm_bot, Quantity: VISCOSITY
   328 Coords:      0.540625      0.000000      0.009375, Make: null, ID: mu_strm_bot, Quantity: VISCOSITY
   329 Coords:      0.546875      0.000000      0.009375, Make: null, ID: mu_strm_bot, Quantity: VISCOSITY
   330 Coords:      0.553125      0.000000      0.009375, Make: null, ID: mu_strm_bot, Quantity: VISCOSITY
   331 Coords:      0.559375      0.000000      0.009375, Make: null, ID: mu_strm_bot, Quantity: VISCOSITY
   332 Coords:      0.565625      0.000000      0.009375, Make: null, ID: mu_strm_bot, Quantity: VISCOSITY
   333 Coords:      0.571875      0.000000      0.009375, Make: null, ID: mu_strm_bot, Quantity: VISCOSITY
   334 Coords:      0.578125      0.000000      0.009375, Make: null, ID: mu_strm_bot, Quantity: VISCOSITY
   335 Coords:      0.584375      0.000000      0.009375, Make: null, ID: mu_strm_bot, Quantity: VISCOSITY
   336 Coords:      0.590625      0.000000      0.009375, Make: null, ID: mu_strm_bot, Quantity: VISCOSITY
   337 Coords:      0.596875      0.000000      0.009375, Make: null, ID: mu_strm_bot, Quantity: VISCOSITY
   338 Coords:     -0.396875      0.000000      0.009375, Make: null, ID: urms_strm_bot, Quantity: U-VELOCITY
   339 Coords:     -0.390625      0.000000      0.009375, Make: null, ID: urms_strm_bot, Quantity: U-VELOCITY
   340 Coords:     -0.384375      0.000000      0.009375, Make: null, ID: urms_strm_bot, Quantity: U-VELOCITY
   341 Coords:     -0.378125      0.000000      0.009375, Make: null, ID: urms_strm_bot, Quantity: U-VELOCITY
   342 Coords:     -0.371875      0.000000      0.009375, Make: null, ID: urms_strm_bot, Quantity: U-VELOCITY
   343 Coords:     -0.365625      0.000000      0.009375, Make: null, ID: urms_strm_bot, Quantity: U-VELOCITY
   344 Coords:     -0.359375      0.000000      0.009375, Make: null, ID: urms_strm_bot, Quantity: U-VELOCITY
   345 Coords:     -0.353125      0.000000      0.009375, Make: null, ID: urms_strm_bot, Quantity: U-VELOCITY
   346 Coords:     -0.346875      0.000000      0.009375, Make: null, ID: urms_strm_bot, Quantity: U-VELOCITY
   347 Coords:     -0.340625      0.000000      0.009375, Make: null, ID: urms_strm_bot, Quantity: U-VELOCITY
   348 Coords:     -0.334375      0.000000      0.009375, Make: null, ID: urms_strm_bot, Quantity: U-VELOCITY
   349 Coords:     -0.328125      0.000000      0.009375, Make: null, ID: urms_strm_bot, Quantity: U-VELOCITY
   350 Coords:     -0.321875      0.000000      0.009375, Make: null, ID: urms_strm_bot, Quantity: U-VELOCITY
   351 Coords:     -0.315625      0.000000      0.009375, Make: null, ID: urms_strm_bot, Quantity: U-VELOCITY
   352 Coords:     -0.309375      0.000000      0.009375, Make: null, ID: urms_strm_bot, Quantity: U-VELOCITY
   353 Coords:     -0.303125      0.000000      0.009375, Make: null, ID: urms_strm_bot, Quantity: U-VELOCITY
   354 Coords:     -0.296875      0.000000      0.009375, Make: null, ID: urms_strm_bot, Quantity: U-VELOCITY
   355 Coords:     -0.290625      0.000000      0.009375, Make: null, ID: urms_strm_bot, Quantity: U-VELOCITY
   356 Coords:     -0.284375      0.000000      0.009375, Make: null, ID: urms_strm_bot, Quantity: U-VELOCITY
   357 Coords:     -0.278125      0.000000      0.009375, Make: null, ID: urms_strm_bot, Quantity: U-VELOCITY
   358 Coords:     -0.271875      0.000000      0.009375, Make: null, ID: urms_strm_bot, Quantity: U-VELOCITY
   359 Coords:     -0.265625      0.000000      0.009375, Make: null, ID: urms_strm_bot, Quantity: U-VELOCITY
   360 Coords:     -0.259375      0.000000      0.009375, Make: null, ID: urms_strm_bot, Quantity: U-VELOCITY
   361 Coords:     -0.253125      0.000000      0.009375, Make: null, ID: urms_strm_bot, Quantity: U-VELOCITY
   362 Coords:     -0.246875      0.000000      0.009375, Make: null, ID: urms_strm_bot, Quantity: U-VELOCITY
   363 Coords:     -0.240625      0.000000      0.009375, Make: null, ID: urms_strm_bot, Quantity: U-VELOCITY
   364 Coords:     -0.234375      0.000000      0.009375, Make: null, ID: urms_strm_bot, Quantity: U-VELOCITY
   365 Coords:     -0.228125      0.000000      0.009375, Make: null, ID: urms_strm_bot, Quantity: U-VELOCITY
   366 Coords:     -0.221875      0.000000      0.009375, Make: null, ID: urms_strm_bot, Quantity: U-VELOCITY
   367 Coords:     -0.215625      0.000000      0.009375, Make: null, ID: urms_strm_bot, Quantity: U-VELOCITY
   368 Coords:     -0.209375      0.000000      0.009375, Make: null, ID: urms_strm_bot, Quantity: U-VELOCITY
   369 Coords:     -0.203125      0.000000      0.009375, Make: null, ID: urms_strm_bot, Quantity: U-VELOCITY
   370 Coords:     -0.196875      0.000000      0.009375, Make: null, ID: urms_strm_bot, Quantity: U-VELOCITY
   371 Coords:     -0.190625      0.000000      0.009375, Make: null, ID: urms_strm_bot, Quantity: U-VELOCITY
   372 Coords:     -0.184375      0.000000      0.009375, Make: null, ID: urms_strm_bot, Quantity: U-VELOCITY
   373 Coords:     -0.178125      0.000000      0.009375, Make: null, ID: urms_strm_bot, Quantity: U-VELOCITY
   374 Coords:     -0.171875      0.000000      0.009375, Make: null, ID: urms_strm_bot, Quantity: U-VELOCITY
   375 Coords:     -0.165625      0.000000      0.009375, Make: null, ID: urms_strm_bot, Quantity: U-VELOCITY
   376 Coords:     -0.159375      0.000000      0.009375, Make: null, ID: urms_strm_bot, Quantity: U-VELOCITY
   377 Coords:     -0.153125      0.000000      0.009375, Make: null, ID: urms_strm_bot, Quantity: U-VELOCITY
   378 Coords:     -0.146875      0.000000      0.009375, Make: null, ID: urms_strm_bot, Quantity: U-VELOCITY
   379 Coords:     -0.140625      0.000000      0.009375, Make: null, ID: urms_strm_bot, Quantity: U-VELOCITY
   380 Coords:     -0.134375      0.000000      0.009375, Make: null, ID: urms_strm_bot, Quantity: U-VELOCITY
   381 Coords:     -0.128125      0.000000      0.009375, Make: null, ID: urms_strm_bot, Quantity: U-VELOCITY
   382 Coords:     -0.121875      0.000000      0.009375, Make: null, ID: urms_strm_bot, Quantity: U-VELOCITY
   383 Coords:     -0.115625      0.000000      0.009375, Make: null, ID: urms_strm_bot, Quantity: U-VELOCITY
   384 Coords:     -0.109375      0.000000      0.009375, Make: null, ID: urms_strm_bot, Quantity: U-VELOCITY
   385 Coords:     -0.103125      0.000000      0.009375, Make: null, ID: urms_strm_bot, Quantity: U-VELOCITY
   386 Coords:     -0.096875      0.000000      0.009375, Make: null, ID: urms_strm_bot, Quantity: U-VELOCITY
   387 Coords:     -0.090625      0.000000      0.009375, Make: null, ID: urms_strm_bot, Quantity: U-VELOCITY
   388 Coords:     -0.084375      0.000000      0.009375, Make: null, ID: urms_strm_bot, Quantity: U-VELOCITY
   389 Coords:     -0.078125      0.000000      0.009375, Make: null, ID: urms_strm_bot, Quantity: U-VELOCITY
   390 Coords:     -0.071875      0.000000      0.009375, Make: null, ID: urms_strm_bot, Quantity: U-VELOCITY
   391 Coords:     -0.065625      0.000000      0.009375, Make: null, ID: urms_strm_bot, Quantity: U-VELOCITY
   392 Coords:     -0.059375      0.000000      0.009375, Make: null, ID: urms_strm_bot, Quantity: U-VELOCITY
   393 Coords:     -0.053125      0.000000      0.009375, Make: null, ID: urms_strm_bot, Quantity: U-VELOCITY
   394 Coords:     -0.046875      0.000000      0.009375, Make: null, ID: urms_strm_bot, Quantity: U-VELOCITY
   395 Coords:     -0.040625      0.000000      0.009375, Make: null, ID: urms_strm_bot, Quantity: U-VELOCITY
   396 Coords:     -0.034375      0.000000      0.009375, Make: null, ID: urms_strm_bot, Quantity: U-VELOCITY
   397 Coords:     -0.028125      0.000000      0.009375, Make: null, ID: urms_strm_bot, Quantity: U-VELOCITY
   398 Coords:     -0.021875      0.000000      0.009375, Make: null, ID: urms_strm_bot, Quantity: U-VELOCITY
   399 Coords:     -0.015625      0.000000      0.009375, Make: null, ID: urms_strm_bot, Quantity: U-VELOCITY
   400 Coords:     -0.009375      0.000000      0.009375, Make: null, ID: urms_strm_bot, Quantity: U-VELOCITY
   401 Coords:     -0.003125      0.000000      0.009375, Make: null, ID: urms_strm_bot, Quantity: U-VELOCITY
   402 Coords:      0.003125      0.000000      0.009375, Make: null, ID: urms_strm_bot, Quantity: U-VELOCITY
   403 Coords:      0.009375      0.000000      0.009375, Make: null, ID: urms_strm_bot, Quantity: U-VELOCITY
   404 Coords:      0.015625      0.000000      0.009375, Make: null, ID: urms_strm_bot, Quantity: U-VELOCITY
   405 Coords:      0.021875      0.000000      0.009375, Make: null, ID: urms_strm_bot, Quantity: U-VELOCITY
   406 Coords:      0.028125      0.000000      0.009375, Make: null, ID: urms_strm_bot, Quantity: U-VELOCITY
   407 Coords:      0.034375      0.000000      0.009375, Make: null, ID: urms_strm_bot, Quantity: U-VELOCITY
   408 Coords:      0.040625      0.000000      0.009375, Make: null, ID: urms_strm_bot, Quantity: U-VELOCITY
   409 Coords:      0.046875      0.000000      0.009375, Make: null, ID: urms_strm_bot, Quantity: U-VELOCITY
   410 Coords:      0.053125      0.000000      0.009375, Make: null, ID: urms_strm_bot, Quantity: U-VELOCITY
   411 Coords:      0.059375      0.000000      0.009375, Make: null, ID: urms_strm_bot, Quantity: U-VELOCITY
   412 Coords:      0.065625      0.000000      0.009375, Make: null, ID: urms_strm_bot, Quantity: U-VELOCITY
   413 Coords:      0.071875      0.000000      0.009375, Make: null, ID: urms_strm_bot, Quantity: U-VELOCITY
   414 Coords:      0.078125      0.000000      0.009375, Make: null, ID: urms_strm_bot, Quantity: U-VELOCITY
   415 Coords:      0.084375      0.000000      0.009375, Make: null, ID: urms_strm_bot, Quantity: U-VELOCITY
   416 Coords:      0.090625      0.000000      0.009375, Make: null, ID: urms_strm_bot, Quantity: U-VELOCITY
   417 Coords:      0.096875      0.000000      0.009375, Make: null, ID: urms_strm_bot, Quantity: U-VELOCITY
   418 Coords:      0.103125      0.000000      0.009375, Make: null, ID: urms_strm_bot, Quantity: U-VELOCITY
   419 Coords:      0.109375      0.000000      0.009375, Make: null, ID: urms_strm_bot, Quantity: U-VELOCITY
   420 Coords:      0.115625      0.000000      0.009375, Make: null, ID: urms_strm_bot, Quantity: U-VELOCITY
   421 Coords:      0.121875      0.000000      0.009375, Make: null, ID: urms_strm_bot, Quantity: U-VELOCITY
   422 Coords:      0.128125      0.000000      0.009375, Make: null, ID: urms_strm_bot, Quantity: U-VELOCITY
   423 Coords:      0.134375      0.000000      0.009375, Make: null, ID: urms_strm_bot, Quantity: U-VELOCITY
   424 Coords:      0.140625      0.000000      0.009375, Make: null, ID: urms_strm_bot, Quantity: U-VELOCITY
   425 Coords:      0.146875      0.000000      0.009375, Make: null, ID: urms_strm_bot, Quantity: U-VELOCITY
   426 Coords:      0.153125      0.000000      0.009375, Make: null, ID: urms_strm_bot, Quantity: U-VELOCITY
   427 Coords:      0.159375      0.000000      0.009375, Make: null, ID: urms_strm_bot, Quantity: U-VELOCITY
   428 Coords:      0.165625      0.000000      0.009375, Make: null, ID: urms_strm_bot, Quantity: U-VELOCITY
   429 Coords:      0.171875      0.000000      0.009375, Make: null, ID: urms_strm_bot, Quantity: U-VELOCITY
   430 Coords:      0.178125      0.000000      0.009375, Make: null, ID: urms_strm_bot, Quantity: U-VELOCITY
   431 Coords:      0.184375      0.000000      0.009375, Make: null, ID: urms_strm_bot, Quantity: U-VELOCITY
   432 Coords:      0.190625      0.000000      0.009375, Make: null, ID: urms_strm_bot, Quantity: U-VELOCITY
   433 Coords:      0.196875      0.000000      0.009375, Make: null, ID: urms_strm_bot, Quantity: U-VELOCITY
   434 Coords:      0.203125      0.000000      0.009375, Make: null, ID: urms_strm_bot, Quantity: U-VELOCITY
   435 Coords:      0.209375      0.000000      0.009375, Make: null, ID: urms_strm_bot, Quantity: U-VELOCITY
   436 Coords:      0.215625      0.000000      0.009375, Make: null, ID: urms_strm_bot, Quantity: U-VELOCITY
   437 Coords:      0.221875      0.000000      0.009375, Make: null, ID: urms_strm_bot, Quantity: U-VELOCITY
   438 Coords:      0.228125      0.000000      0.009375, Make: null, ID: urms_strm_bot, Quantity: U-VELOCITY
   439 Coords:      0.234375      0.000000      0.009375, Make: null, ID: urms_strm_bot, Quantity: U-VELOCITY
   440 Coords:      0.240625      0.000000      0.009375, Make: null, ID: urms_strm_bot, Quantity: U-VELOCITY
   441 Coords:      0.246875      0.000000      0.009375, Make: null, ID: urms_strm_bot, Quantity: U-VELOCITY
   442 Coords:      0.253125      0.000000      0.009375, Make: null, ID: urms_strm_bot, Quantity: U-VELOCITY
   443 Coords:      0.259375      0.000000      0.009375, Make: null, ID: urms_strm_bot, Quantity: U-VELOCITY
   444 Coords:      0.265625      0.000000      0.009375, Make: null, ID: urms_strm_bot, Quantity: U-VELOCITY
   445 Coords:      0.271875      0.000000      0.009375, Make: null, ID: urms_strm_bot, Quantity: U-VELOCITY
   446 Coords:      0.278125      0.000000      0.009375, Make: null, ID: urms_strm_bot, Quantity: U-VELOCITY
   447 Coords:      0.284375      0.000000      0.009375, Make: null, ID: urms_strm_bot, Quantity: U-VELOCITY
   448 Coords:      0.290625      0.000000      0.009375, Make: null, ID: urms_strm_bot, Quantity: U-VELOCITY
   449 Coords:      0.296875      0.000000      0.009375, Make: null, ID: urms_strm_bot, Quantity: U-VELOCITY
   450 Coords:      0.303125      0.000000      0.009375, Make: null, ID: urms_strm_bot, Quantity: U-VELOCITY
   451 Coords:      0.309375      0.000000      0.009375, Make: null, ID: urms_strm_bot, Quantity: U-VELOCITY
   452 Coords:      0.315625      0.000000      0.009375, Make: null, ID: urms_strm_bot, Quantity: U-VELOCITY
   453 Coords:      0.321875      0.000000      0.009375, Make: null, ID: urms_strm_bot, Quantity: U-VELOCITY
   454 Coords:      0.328125      0.000000      0.009375, Make: null, ID: urms_strm_bot, Quantity: U-VELOCITY
   455 Coords:      0.334375      0.000000      0.009375, Make: null, ID: urms_strm_bot, Quantity: U-VELOCITY
   456 Coords:      0.340625      0.000000      0.009375, Make: null, ID: urms_strm_bot, Quantity: U-VELOCITY
   457 Coords:      0.346875      0.000000      0.009375, Make: null, ID: urms_strm_bot, Quantity: U-VELOCITY
   458 Coords:      0.353125      0.000000      0.009375, Make: null, ID: urms_strm_bot, Quantity: U-VELOCITY
   459 Coords:      0.359375      0.000000      0.009375, Make: null, ID: urms_strm_bot, Quantity: U-VELOCITY
   460 Coords:      0.365625      0.000000      0.009375, Make: null, ID: urms_strm_bot, Quantity: U-VELOCITY
   461 Coords:      0.371875      0.000000      0.009375, Make: null, ID: urms_strm_bot, Quantity: U-VELOCITY
   462 Coords:      0.378125      0.000000      0.009375, Make: null, ID: urms_strm_bot, Quantity: U-VELOCITY
   463 Coords:      0.384375      0.000000      0.009375, Make: null, ID: urms_strm_bot, Quantity: U-VELOCITY
   464 Coords:      0.390625      0.000000      0.009375, Make: null, ID: urms_strm_bot, Quantity: U-VELOCITY
   465 Coords:      0.396875      0.000000      0.009375, Make: null, ID: urms_strm_bot, Quantity: U-VELOCITY
   466 Coords:      0.403125      0.000000      0.009375, Make: null, ID: urms_strm_bot, Quantity: U-VELOCITY
   467 Coords:      0.409375      0.000000      0.009375, Make: null, ID: urms_strm_bot, Quantity: U-VELOCITY
   468 Coords:      0.415625      0.000000      0.009375, Make: null, ID: urms_strm_bot, Quantity: U-VELOCITY
   469 Coords:      0.421875      0.000000      0.009375, Make: null, ID: urms_strm_bot, Quantity: U-VELOCITY
   470 Coords:      0.428125      0.000000      0.009375, Make: null, ID: urms_strm_bot, Quantity: U-VELOCITY
   471 Coords:      0.434375      0.000000      0.009375, Make: null, ID: urms_strm_bot, Quantity: U-VELOCITY
   472 Coords:      0.440625      0.000000      0.009375, Make: null, ID: urms_strm_bot, Quantity: U-VELOCITY
   473 Coords:      0.446875      0.000000      0.009375, Make: null, ID: urms_strm_bot, Quantity: U-VELOCITY
   474 Coords:      0.453125      0.000000      0.009375, Make: null, ID: urms_strm_bot, Quantity: U-VELOCITY
   475 Coords:      0.459375      0.000000      0.009375, Make: null, ID: urms_strm_bot, Quantity: U-VELOCITY
   476 Coords:      0.465625      0.000000      0.009375, Make: null, ID: urms_strm_bot, Quantity: U-VELOCITY
   477 Coords:      0.471875      0.000000      0.009375, Make: null, ID: urms_strm_bot, Quantity: U-VELOCITY
   478 Coords:      0.478125      0.000000      0.009375, Make: null, ID: urms_strm_bot, Quantity: U-VELOCITY
   479 Coords:      0.484375      0.000000      0.009375, Make: null, ID: urms_strm_bot, Quantity: U-VELOCITY
   480 Coords:      0.490625      0.000000      0.009375, Make: null, ID: urms_strm_bot, Quantity: U-VELOCITY
   481 Coords:      0.496875      0.000000      0.009375, Make: null, ID: urms_strm_bot, Quantity: U-VELOCITY
   482 Coords:      0.503125      0.000000      0.009375, Make: null, ID: urms_strm_bot, Quantity: U-VELOCITY
   483 Coords:      0.509375      0.000000      0.009375, Make: null, ID: urms_strm_bot, Quantity: U-VELOCITY
   484 Coords:      0.515625      0.000000      0.009375, Make: null, ID: urms_strm_bot, Quantity: U-VELOCITY
   485 Coords:      0.521875      0.000000      0.009375, Make: null, ID: urms_strm_bot, Quantity: U-VELOCITY
   486 Coords:      0.528125      0.000000      0.009375, Make: null, ID: urms_strm_bot, Quantity: U-VELOCITY
   487 Coords:      0.534375      0.000000      0.009375, Make: null, ID: urms_strm_bot, Quantity: U-VELOCITY
   488 Coords:      0.540625      0.000000      0.009375, Make: null, ID: urms_strm_bot, Quantity: U-VELOCITY
   489 Coords:      0.546875      0.000000      0.009375, Make: null, ID: urms_strm_bot, Quantity: U-VELOCITY
   490 Coords:      0.553125      0.000000      0.009375, Make: null, ID: urms_strm_bot, Quantity: U-VELOCITY
   491 Coords:      0.559375      0.000000      0.009375, Make: null, ID: urms_strm_bot, Quantity: U-VELOCITY
   492 Coords:      0.565625      0.000000      0.009375, Make: null, ID: urms_strm_bot, Quantity: U-VELOCITY
   493 Coords:      0.571875      0.000000      0.009375, Make: null, ID: urms_strm_bot, Quantity: U-VELOCITY
   494 Coords:      0.578125      0.000000      0.009375, Make: null, ID: urms_strm_bot, Quantity: U-VELOCITY
   495 Coords:      0.584375      0.000000      0.009375, Make: null, ID: urms_strm_bot, Quantity: U-VELOCITY
   496 Coords:      0.590625      0.000000      0.009375, Make: null, ID: urms_strm_bot, Quantity: U-VELOCITY
   497 Coords:      0.596875      0.000000      0.009375, Make: null, ID: urms_strm_bot, Quantity: U-VELOCITY
   498 Coords:     -0.046875      0.000000      0.109375, Make: null, ID: urms_strm_rib, Quantity: U-VELOCITY
   499 Coords:     -0.040625      0.000000      0.109375, Make: null, ID: urms_strm_rib, Quantity: U-VELOCITY
   500 Coords:     -0.034375      0.000000      0.109375, Make: null, ID: urms_strm_rib, Quantity: U-VELOCITY
   501 Coords:     -0.028125      0.000000      0.109375, Make: null, ID: urms_strm_rib, Quantity: U-VELOCITY
   502 Coords:     -0.021875      0.000000      0.109375, Make: null, ID: urms_strm_rib, Quantity: U-VELOCITY
   503 Coords:     -0.015625      0.000000      0.109375, Make: null, ID: urms_strm_rib, Quantity: U-VELOCITY
   504 Coords:     -0.009375      0.000000      0.109375, Make: null, ID: urms_strm_rib, Quantity: U-VELOCITY
   505 Coords:     -0.003125      0.000000      0.109375, Make: null, ID: urms_strm_rib, Quantity: U-VELOCITY
   506 Coords:      0.003125      0.000000      0.109375, Make: null, ID: urms_strm_rib, Quantity: U-VELOCITY
   507 Coords:      0.009375      0.000000      0.109375, Make: null, ID: urms_strm_rib, Quantity: U-VELOCITY
   508 Coords:      0.015625      0.000000      0.109375, Make: null, ID: urms_strm_rib, Quantity: U-VELOCITY
   509 Coords:      0.021875      0.000000      0.109375, Make: null, ID: urms_strm_rib, Quantity: U-VELOCITY
   510 Coords:      0.028125      0.000000      0.109375, Make: null, ID: urms_strm_rib, Quantity: U-VELOCITY
   511 Coords:      0.034375      0.000000      0.109375, Make: null, ID: urms_strm_rib, Quantity: U-VELOCITY
   512 Coords:      0.040625      0.000000      0.109375, Make: null, ID: urms_strm_rib, Quantity: U-VELOCITY
   513 Coords:      0.046875      0.000000      0.109375, Make: null, ID: urms_strm_rib, Quantity: U-VELOCITY
   514 Coords:      0.000000      0.000000      0.103125, Make: null, ID: u_prof_rib, Quantity: U-VELOCITY
   515 Coords:      0.000000      0.000000      0.109375, Make: null, ID: u_prof_rib, Quantity: U-VELOCITY
   516 Coords:      0.000000      0.000000      0.115625, Make: null, ID: u_prof_rib, Quantity: U-VELOCITY
   517 Coords:      0.000000      0.000000      0.121875, Make: null, ID: u_prof_rib, Quantity: U-VELOCITY
   518 Coords:      0.000000      0.000000      0.128125, Make: null, ID: u_prof_rib, Quantity: U-VELOCITY
   519 Coords:      0.000000      0.000000      0.134375, Make: null, ID: u_prof_rib, Quantity: U-VELOCITY
   520 Coords:      0.000000      0.000000      0.140625, Make: null, ID: u_prof_rib, Quantity: U-VELOCITY
   521 Coords:      0.000000      0.000000      0.146875, Make: null, ID: u_prof_rib, Quantity: U-VELOCITY
   522 Coords:      0.000000      0.000000      0.153125, Make: null, ID: u_prof_rib, Quantity: U-VELOCITY
   523 Coords:      0.000000      0.000000      0.159375, Make: null, ID: u_prof_rib, Quantity: U-VELOCITY
   524 Coords:      0.000000      0.000000      0.165625, Make: null, ID: u_prof_rib, Quantity: U-VELOCITY
   525 Coords:      0.000000      0.000000      0.171875, Make: null, ID: u_prof_rib, Quantity: U-VELOCITY
   526 Coords:      0.000000      0.000000      0.178125, Make: null, ID: u_prof_rib, Quantity: U-VELOCITY
   527 Coords:      0.000000      0.000000      0.184375, Make: null, ID: u_prof_rib, Quantity: U-VELOCITY
   528 Coords:      0.000000      0.000000      0.190625, Make: null, ID: u_prof_rib, Quantity: U-VELOCITY
   529 Coords:      0.000000      0.000000      0.196875, Make: null, ID: u_prof_rib, Quantity: U-VELOCITY
   530 Coords:      0.000000      0.000000      0.203125, Make: null, ID: u_prof_rib, Quantity: U-VELOCITY
   531 Coords:      0.000000      0.000000      0.209375, Make: null, ID: u_prof_rib, Quantity: U-VELOCITY
   532 Coords:      0.000000      0.000000      0.215625, Make: null, ID: u_prof_rib, Quantity: U-VELOCITY
   533 Coords:      0.000000      0.000000      0.221875, Make: null, ID: u_prof_rib, Quantity: U-VELOCITY
   534 Coords:      0.000000      0.000000      0.228125, Make: null, ID: u_prof_rib, Quantity: U-VELOCITY
   535 Coords:      0.000000      0.000000      0.234375, Make: null, ID: u_prof_rib, Quantity: U-VELOCITY
   536 Coords:      0.000000      0.000000      0.240625, Make: null, ID: u_prof_rib, Quantity: U-VELOCITY
   537 Coords:      0.000000      0.000000      0.246875, Make: null, ID: u_prof_rib, Quantity: U-VELOCITY
   538 Coords:      0.000000      0.000000      0.253125, Make: null, ID: u_prof_rib, Quantity: U-VELOCITY
   539 Coords:      0.000000      0.000000      0.259375, Make: null, ID: u_prof_rib, Quantity: U-VELOCITY
   540 Coords:      0.000000      0.000000      0.265625, Make: null, ID: u_prof_rib, Quantity: U-VELOCITY
   541 Coords:      0.000000      0.000000      0.271875, Make: null, ID: u_prof_rib, Quantity: U-VELOCITY
   542 Coords:      0.000000      0.000000      0.278125, Make: null, ID: u_prof_rib, Quantity: U-VELOCITY
   543 Coords:      0.000000      0.000000      0.284375, Make: null, ID: u_prof_rib, Quantity: U-VELOCITY
   544 Coords:      0.000000      0.000000      0.290625, Make: null, ID: u_prof_rib, Quantity: U-VELOCITY
   545 Coords:      0.000000      0.000000      0.296875, Make: null, ID: u_prof_rib, Quantity: U-VELOCITY
   546 Coords:      0.000000      0.000000      0.103125, Make: null, ID: urms_prof_rib, Quantity: U-VELOCITY
   547 Coords:      0.000000      0.000000      0.109375, Make: null, ID: urms_prof_rib, Quantity: U-VELOCITY
   548 Coords:      0.000000      0.000000      0.115625, Make: null, ID: urms_prof_rib, Quantity: U-VELOCITY
   549 Coords:      0.000000      0.000000      0.121875, Make: null, ID: urms_prof_rib, Quantity: U-VELOCITY
   550 Coords:      0.000000      0.000000      0.128125, Make: null, ID: urms_prof_rib, Quantity: U-VELOCITY
   551 Coords:      0.000000      0.000000      0.134375, Make: null, ID: urms_prof_rib, Quantity: U-VELOCITY
   552 Coords:      0.000000      0.000000      0.140625, Make: null, ID: urms_prof_rib, Quantity: U-VELOCITY
   553 Coords:      0.000000      0.000000      0.146875, Make: null, ID: urms_prof_rib, Quantity: U-VELOCITY
   554 Coords:      0.000000      0.000000      0.153125, Make: null, ID: urms_prof_rib, Quantity: U-VELOCITY
   555 Coords:      0.000000      0.000000      0.159375, Make: null, ID: urms_prof_rib, Quantity: U-VELOCITY
   556 Coords:      0.000000      0.000000      0.165625, Make: null, ID: urms_prof_rib, Quantity: U-VELOCITY
   557 Coords:      0.000000      0.000000      0.171875, Make: null, ID: urms_prof_rib, Quantity: U-VELOCITY
   558 Coords:      0.000000      0.000000      0.178125, Make: null, ID: urms_prof_rib, Quantity: U-VELOCITY
   559 Coords:      0.000000      0.000000      0.184375, Make: null, ID: urms_prof_rib, Quantity: U-VELOCITY
   560 Coords:      0.000000      0.000000      0.190625, Make: null, ID: urms_prof_rib, Quantity: U-VELOCITY
   561 Coords:      0.000000      0.000000      0.196875, Make: null, ID: urms_prof_rib, Quantity: U-VELOCITY
   562 Coords:      0.000000      0.000000      0.203125, Make: null, ID: urms_prof_rib, Quantity: U-VELOCITY
   563 Coords:      0.000000      0.000000      0.209375, Make: null, ID: urms_prof_rib, Quantity: U-VELOCITY
   564 Coords:      0.000000      0.000000      0.215625, Make: null, ID: urms_prof_rib, Quantity: U-VELOCITY
   565 Coords:      0.000000      0.000000      0.221875, Make: null, ID: urms_prof_rib, Quantity: U-VELOCITY
   566 Coords:      0.000000      0.000000      0.228125, Make: null, ID: urms_prof_rib, Quantity: U-VELOCITY
   567 Coords:      0.000000      0.000000      0.234375, Make: null, ID: urms_prof_rib, Quantity: U-VELOCITY
   568 Coords:      0.000000      0.000000      0.240625, Make: null, ID: urms_prof_rib, Quantity: U-VELOCITY
   569 Coords:      0.000000      0.000000      0.246875, Make: null, ID: urms_prof_rib, Quantity: U-VELOCITY
   570 Coords:      0.000000      0.000000      0.253125, Make: null, ID: urms_prof_rib, Quantity: U-VELOCITY
   571 Coords:      0.000000      0.000000      0.259375, Make: null, ID: urms_prof_rib, Quantity: U-VELOCITY
   572 Coords:      0.000000      0.000000      0.265625, Make: null, ID: urms_prof_rib, Quantity: U-VELOCITY
   573 Coords:      0.000000      0.000000      0.271875, Make: null, ID: urms_prof_rib, Quantity: U-VELOCITY
   574 Coords:      0.000000      0.000000      0.278125, Make: null, ID: urms_prof_rib, Quantity: U-VELOCITY
   575 Coords:      0.000000      0.000000      0.284375, Make: null, ID: urms_prof_rib, Quantity: U-VELOCITY
   576 Coords:      0.000000      0.000000      0.290625, Make: null, ID: urms_prof_rib, Quantity: U-VELOCITY
   577 Coords:      0.000000      0.000000      0.296875, Make: null, ID: urms_prof_rib, Quantity: U-VELOCITY
   578 Coords:      0.000000      0.000000      0.103125, Make: null, ID: mu_prof_rib, Quantity: VISCOSITY
   579 Coords:      0.000000      0.000000      0.109375, Make: null, ID: mu_prof_rib, Quantity: VISCOSITY
   580 Coords:      0.000000      0.000000      0.115625, Make: null, ID: mu_prof_rib, Quantity: VISCOSITY
   581 Coords:      0.000000      0.000000      0.121875, Make: null, ID: mu_prof_rib, Quantity: VISCOSITY
   582 Coords:      0.000000      0.000000      0.128125, Make: null, ID: mu_prof_rib, Quantity: VISCOSITY
   583 Coords:      0.000000      0.000000      0.134375, Make: null, ID: mu_prof_rib, Quantity: VISCOSITY
   584 Coords:      0.000000      0.000000      0.140625, Make: null, ID: mu_prof_rib, Quantity: VISCOSITY
   585 Coords:      0.000000      0.000000      0.146875, Make: null, ID: mu_prof_rib, Quantity: VISCOSITY
   586 Coords:      0.000000      0.000000      0.153125, Make: null, ID: mu_prof_rib, Quantity: VISCOSITY
   587 Coords:      0.000000      0.000000      0.159375, Make: null, ID: mu_prof_rib, Quantity: VISCOSITY
   588 Coords:      0.000000      0.000000      0.165625, Make: null, ID: mu_prof_rib, Quantity: VISCOSITY
   589 Coords:      0.000000      0.000000      0.171875, Make: null, ID: mu_prof_rib, Quantity: VISCOSITY
   590 Coords:      0.000000      0.000000      0.178125, Make: null, ID: mu_prof_rib, Quantity: VISCOSITY
   591 Coords:      0.000000      0.000000      0.184375, Make: null, ID: mu_prof_rib, Quantity: VISCOSITY
   592 Coords:      0.000000      0.000000      0.190625, Make: null, ID: mu_prof_rib, Quantity: VISCOSITY
   593 Coords:      0.000000      0.000000      0.196875, Make: null, ID: mu_prof_rib, Quantity: VISCOSITY
   594 Coords:      0.000000      0.000000      0.203125, Make: null, ID: mu_prof_rib, Quantity: VISCOSITY
   595 Coords:      0.000000      0.000000      0.209375, Make: null, ID: mu_prof_rib, Quantity: VISCOSITY
   596 Coords:      0.000000      0.000000      0.215625, Make: null, ID: mu_prof_rib, Quantity: VISCOSITY
   597 Coords:      0.000000      0.000000      0.221875, Make: null, ID: mu_prof_rib, Quantity: VISCOSITY
   598 Coords:      0.000000      0.000000      0.228125, Make: null, ID: mu_prof_rib, Quantity: VISCOSITY
   599 Coords:      0.000000      0.000000      0.234375, Make: null, ID: mu_prof_rib, Quantity: VISCOSITY
   600 Coords:      0.000000      0.000000      0.240625, Make: null, ID: mu_prof_rib, Quantity: VISCOSITY
   601 Coords:      0.000000      0.000000      0.246875, Make: null, ID: mu_prof_rib, Quantity: VISCOSITY
   602 Coords:      0.000000      0.000000      0.253125, Make: null, ID: mu_prof_rib, Quantity: VISCOSITY
   603 Coords:      0.000000      0.000000      0.259375, Make: null, ID: mu_prof_rib, Quantity: VISCOSITY
   604 Coords:      0.000000      0.000000      0.265625, Make: null, ID: mu_prof_rib, Quantity: VISCOSITY
   605 Coords:      0.000000      0.000000      0.271875, Make: null, ID: mu_prof_rib, Quantity: VISCOSITY
   606 Coords:      0.000000      0.000000      0.278125, Make: null, ID: mu_prof_rib, Quantity: VISCOSITY
   607 Coords:      0.000000      0.000000      0.284375, Make: null, ID: mu_prof_rib, Quantity: VISCOSITY
   608 Coords:      0.000000      0.000000      0.290625, Make: null, ID: mu_prof_rib, Quantity: VISCOSITY
   609 Coords:      0.000000      0.000000      0.296875, Make: null, ID: mu_prof_rib, Quantity: VISCOSITY


 Slice File Information, Mesh     1

   Sampling Interval (s)             0.100

   1 Nodes:   0 160  25  25   0  48, Quantity: PRESSURE
   2 Nodes:   0 160  25  25   0  48, Quantity: VISCOSITY
   3 Nodes:   0 160  24  24   0  48, Quantity: VELOCITY
   4 Nodes:   0 160  24  24   0  48, Quantity: U-VELOCITY
   5 Nodes:   0 160  24  24   0  48, Quantity: V-VELOCITY
   6 Nodes:   0 160  24  24   0  48, Quantity: W-VELOCITY


 Boundary File Information

   Sampling Interval (s)             0.200

   1 Quantity: VISCOUS WALL UNITS
   2 Quantity: FRICTION VELOCITY
 
 

 Run Time Diagnostics

       Time Step       1   June 26, 2020  16:19:19
       Step Size:    0.469E-02 s, Total Time:      0.005 s
       Pressure Iterations:      5
       Maximum Velocity Error:  0.24E-02 on Mesh   1 at (  72  16  16)
       Maximum Pressure Error:  0.98E-10 on Mesh   1 at (  73  16  16)
       ---------------------------------------------------------------
       Max CFL number:  0.88E+00 at (  55,  37,  16)
       Max divergence:  0.25E-12 at (  73,  46,  16)
       Min divergence: -0.22E-12 at (  56,  29,  17)
       Max VN number:   0.65E-01 at (  77,  48,  48)
 
       Time Step       2   June 26, 2020  16:19:20
       Step Size:    0.469E-02 s, Total Time:      0.009 s
       Pressure Iterations:      7
       Maximum Velocity Error:  0.26E-02 on Mesh   1 at (  72  33  16)
       Maximum Pressure Error:  0.16E-09 on Mesh   1 at (  56  11  17)
       ---------------------------------------------------------------
       Max CFL number:  0.10E+01 at (  55,   3,  16)
       Max divergence:  0.39E-12 at (  73,  40,  16)
       Min divergence: -0.38E-12 at (  56,  10,  17)
       Max VN number:   0.65E-01 at (  77,  48,  48)
 
       Time Step       3   June 26, 2020  16:19:21
       Step Size:    0.400E-02 s, Total Time:       0.01 s
       Pressure Iterations:      6
       Maximum Velocity Error:  0.24E-02 on Mesh   1 at (  72  48  16)
       Maximum Pressure Error:  0.21E-09 on Mesh   1 at (  73  17  16)
       ---------------------------------------------------------------
       Max CFL number:  0.89E+00 at (  55,   4,  16)
       Max divergence:  0.24E-12 at (  73,  40,  16)
       Min divergence: -0.28E-12 at (  56,   8,  17)
       Max VN number:   0.76E-01 at (  56,  37,  17)
 
       Time Step       4   June 26, 2020  16:19:21
       Step Size:    0.400E-02 s, Total Time:       0.02 s
       Pressure Iterations:      3
       Maximum Velocity Error:  0.24E-02 on Mesh   1 at (  72  48  16)
       Maximum Pressure Error:  0.15E-09 on Mesh   1 at (  56  39  17)
       ---------------------------------------------------------------
       Max CFL number:  0.91E+00 at (  55,   4,  16)
       Max divergence:  0.19E-12 at (  73,  39,  16)
       Min divergence: -0.29E-12 at (  56,  37,  17)
       Max VN number:   0.11E+00 at (  56,  37,  17)
 
       Time Step       5   June 26, 2020  16:19:22
       Step Size:    0.400E-02 s, Total Time:       0.02 s
       Pressure Iterations:      3
       Maximum Velocity Error:  0.24E-02 on Mesh   1 at (   0  12   3)
       Maximum Pressure Error:  0.14E-09 on Mesh   1 at (  56  11  17)
       ---------------------------------------------------------------
       Max CFL number:  0.90E+00 at (  55,   4,  16)
       Max divergence:  0.18E-12 at (  73,  44,  16)
       Min divergence: -0.30E-12 at (  56,  20,  17)
       Max VN number:   0.13E+00 at (  55,  47,  16)
 
       Time Step       6   June 26, 2020  16:19:23
       Step Size:    0.400E-02 s, Total Time:       0.03 s
       Pressure Iterations:      3
       Maximum Velocity Error:  0.22E-02 on Mesh   1 at (   0  44   3)
       Maximum Pressure Error:  0.16E-09 on Mesh   1 at (  56  47  17)
       ---------------------------------------------------------------
       Max CFL number:  0.89E+00 at (  55,   8,  16)
       Max divergence:  0.18E-12 at (  73,  38,  16)
       Min divergence: -0.28E-12 at (  56,  14,  17)
       Max VN number:   0.15E+00 at (  55,  47,  16)
 
       Time Step       7   June 26, 2020  16:19:23
       Step Size:    0.400E-02 s, Total Time:       0.03 s
       Pressure Iterations:      3
       Maximum Velocity Error:  0.21E-02 on Mesh   1 at (   0  31   3)
       Maximum Pressure Error:  0.17E-09 on Mesh   1 at (  56   4  17)
       ---------------------------------------------------------------
       Max CFL number:  0.87E+00 at (  55,  36,  16)
       Max divergence:  0.17E-12 at (  73,   8,  16)
       Min divergence: -0.28E-12 at (  56,   7,  17)
       Max VN number:   0.16E+00 at (  55,   7,  16)
 
       Time Step       8   June 26, 2020  16:19:24
       Step Size:    0.400E-02 s, Total Time:       0.03 s
       Pressure Iterations:      3
       Maximum Velocity Error:  0.21E-02 on Mesh   1 at (   0  31   3)
       Maximum Pressure Error:  0.17E-09 on Mesh   1 at (  56  41  17)
       ---------------------------------------------------------------
       Max CFL number:  0.87E+00 at (  55,  19,  16)
       Max divergence:  0.19E-12 at (   1,  43,  10)
       Min divergence: -0.33E-12 at (  56,   7,  17)
       Max VN number:   0.17E+00 at (  55,  21,  16)
 
       Time Step       9   June 26, 2020  16:19:24
       Step Size:    0.400E-02 s, Total Time:       0.04 s
       Pressure Iterations:      3
       Maximum Velocity Error:  0.18E-02 on Mesh   1 at (   0  13   3)
       Maximum Pressure Error:  0.19E-09 on Mesh   1 at (  56  39  17)
       ---------------------------------------------------------------
       Max CFL number:  0.89E+00 at (  55,  10,  16)
       Max divergence:  0.16E-12 at ( 160,  24,  18)
       Min divergence: -0.33E-12 at (  56,  34,  17)
       Max VN number:   0.16E+00 at (  55,  21,  16)
 
       Time Step      10   June 26, 2020  16:19:25
       Step Size:    0.400E-02 s, Total Time:       0.04 s
       Pressure Iterations:      3
       Maximum Velocity Error:  0.22E-02 on Mesh   1 at (   0  46  46)
       Maximum Pressure Error:  0.18E-09 on Mesh   1 at (  56   5  17)
       ---------------------------------------------------------------
       Max CFL number:  0.90E+00 at (  55,  15,  16)
       Max divergence:  0.19E-12 at ( 160,   6,   7)
       Min divergence: -0.31E-12 at (  56,  15,  17)
       Max VN number:   0.16E+00 at (  55,  21,  16)
 
       Time Step      20   June 26, 2020  16:19:31
       Step Size:    0.400E-02 s, Total Time:       0.08 s
       Pressure Iterations:      3
       Maximum Velocity Error:  0.22E-02 on Mesh   1 at (   0  37  35)
       Maximum Pressure Error:  0.19E-09 on Mesh   1 at (  56  34  17)
       ---------------------------------------------------------------
       Max CFL number:  0.91E+00 at (  55,  37,  16)
       Max divergence:  0.38E-12 at (  56,  23,  17)
       Min divergence: -0.89E-12 at (  56,  34,  17)
       Max VN number:   0.16E+00 at (  55,  47,  17)
 
       Time Step      30   June 26, 2020  16:19:37
       Step Size:    0.400E-02 s, Total Time:       0.12 s
       Pressure Iterations:      3
       Maximum Velocity Error:  0.21E-02 on Mesh   1 at (   0  24  35)
       Maximum Pressure Error:  0.26E-09 on Mesh   1 at (  56  26  17)
       ---------------------------------------------------------------
       Max CFL number:  0.92E+00 at (  55,  22,  16)
       Max divergence:  0.21E-11 at (  56,  26,  17)
       Min divergence: -0.25E-11 at (  56,  39,  17)
       Max VN number:   0.17E+00 at (  55,  47,  17)
 
       Time Step      40   June 26, 2020  16:19:42
       Step Size:    0.400E-02 s, Total Time:       0.16 s
       Pressure Iterations:      3
       Maximum Velocity Error:  0.24E-02 on Mesh   1 at (   0   3   5)
       Maximum Pressure Error:  0.77E-09 on Mesh   1 at (  57  40  18)
       ---------------------------------------------------------------
       Max CFL number:  0.93E+00 at (  55,   3,  16)
       Max divergence:  0.19E-10 at (  56,  42,  17)
       Min divergence: -0.21E-10 at (  56,  41,  17)
       Max VN number:   0.19E+00 at (  55,  13,  17)
 
       Time Step      50   June 26, 2020  16:19:48
       Step Size:    0.400E-02 s, Total Time:       0.20 s
       Pressure Iterations:      3
       Maximum Velocity Error:  0.22E-02 on Mesh   1 at (   0  34  31)
       Maximum Pressure Error:  0.61E-08 on Mesh   1 at (  57  41  18)
       ---------------------------------------------------------------
       Max CFL number:  0.92E+00 at (  55,   3,  16)
       Max divergence:  0.14E-09 at (  56,  24,  17)
       Min divergence: -0.13E-09 at (  56,  23,  17)
       Max VN number:   0.19E+00 at (  55,  31,  17)
 
       Time Step      60   June 26, 2020  16:19:54
       Step Size:    0.400E-02 s, Total Time:       0.24 s
       Pressure Iterations:      3
       Maximum Velocity Error:  0.24E-02 on Mesh   1 at (   0   7  12)
       Maximum Pressure Error:  0.19E-06 on Mesh   1 at (  58  41  18)
       ---------------------------------------------------------------
       Max CFL number:  0.97E+00 at (  57,  32,  18)
       Max divergence:  0.18E-08 at (  56,  40,  17)
       Min divergence: -0.21E-08 at (  56,  41,  17)
       Max VN number:   0.20E+00 at (  55,  42,  17)
 
       Time Step      70   June 26, 2020  16:20:00
       Step Size:    0.354E-02 s, Total Time:       0.28 s
       Pressure Iterations:      3
       Maximum Velocity Error:  0.21E-02 on Mesh   1 at (   0  40  42)
       Maximum Pressure Error:  0.12E-05 on Mesh   1 at (  58  19  18)
       ---------------------------------------------------------------
       Max CFL number:  0.89E+00 at (  56,  48,  17)
       Max divergence:  0.18E-07 at (  56,  18,  17)
       Min divergence: -0.17E-07 at (  56,  17,  17)
       Max VN number:   0.18E+00 at (  55,  17,  17)
 
       Time Step      80   June 26, 2020  16:20:06
       Step Size:    0.354E-02 s, Total Time:       0.31 s
       Pressure Iterations:      3
       Maximum Velocity Error:  0.25E-02 on Mesh   1 at (  57   8  16)
       Maximum Pressure Error:  0.14E-04 on Mesh   1 at (  58  18  18)
       ---------------------------------------------------------------
       Max CFL number:  0.95E+00 at (  57,  31,  18)
       Max divergence:  0.12E-06 at (  56,  18,  17)
       Min divergence: -0.11E-06 at (  56,  17,  17)
       Max VN number:   0.19E+00 at (  56,  33,  17)
 
       Time Step      90   June 26, 2020  16:20:12
       Step Size:    0.317E-02 s, Total Time:       0.35 s
       Pressure Iterations:      3
       Maximum Velocity Error:  0.29E-02 on Mesh   1 at (  57  28  16)
       Maximum Pressure Error:  0.53E-04 on Mesh   1 at (  58  18  18)
       ---------------------------------------------------------------
[...]
       Maximum Pressure Error:  0.17E-07 on Mesh   1 at (  65  47  28)
       ---------------------------------------------------------------
       Max CFL number:  0.91E+00 at ( 100,  26,  25)
       Max divergence:  0.36E-10 at (  66,  47,  28)
       Min divergence: -0.32E-10 at (  66,  46,  28)
       Max VN number:   0.16E+00 at (  59,  45,  25)
 
       Time Step   50900   June 27, 2020  02:07:16
       Step Size:    0.170E-02 s, Total Time:      94.24 s
       Pressure Iterations:      6
       Maximum Velocity Error:  0.21E-02 on Mesh   1 at (   0  14   7)
       Maximum Pressure Error:  0.97E-09 on Mesh   1 at (  87  19  25)
       ---------------------------------------------------------------
       Max CFL number:  0.87E+00 at (  88,  12,  27)
       Max divergence:  0.81E-12 at (  87,  19,  25)
       Min divergence: -0.76E-12 at (  92,   5,  27)
       Max VN number:   0.13E+00 at (  62,  37,  18)
 
       Time Step   51000   June 27, 2020  02:08:22
       Step Size:    0.147E-02 s, Total Time:      94.41 s
       Pressure Iterations:      6
       Maximum Velocity Error:  0.16E-02 on Mesh   1 at (   0  18  17)
       Maximum Pressure Error:  0.10E-08 on Mesh   1 at (  56  32  17)
       ---------------------------------------------------------------
       Max CFL number:  0.80E+00 at (  69,   5,  24)
       Max divergence:  0.45E-12 at (  58,  32,  17)
       Min divergence: -0.74E-12 at (  56,  48,  17)
       Max VN number:   0.11E+00 at (  56,  47,  18)
 
       Time Step   51100   June 27, 2020  02:09:26
       Step Size:    0.162E-02 s, Total Time:      94.57 s
       Pressure Iterations:      5
       Maximum Velocity Error:  0.17E-02 on Mesh   1 at (   0  20  46)
       Maximum Pressure Error:  0.93E-09 on Mesh   1 at (  56  27  17)
       ---------------------------------------------------------------
       Max CFL number:  0.87E+00 at (  86,  37,  22)
       Max divergence:  0.65E-12 at (  87,  37,  22)
       Min divergence: -0.70E-12 at (  96,  43,  19)
       Max VN number:   0.12E+00 at (  72,  29,  21)
 
       Time Step   51200   June 27, 2020  02:10:32
       Step Size:    0.163E-02 s, Total Time:      94.74 s
       Pressure Iterations:      5
       Maximum Velocity Error:  0.19E-02 on Mesh   1 at (   0  21  24)
       Maximum Pressure Error:  0.13E-08 on Mesh   1 at (  92  43   3)
       ---------------------------------------------------------------
       Max CFL number:  0.86E+00 at (  59,  34,  20)
       Max divergence:  0.93E-12 at (  92,  43,   3)
       Min divergence: -0.71E-12 at (  58,  43,  23)
       Max VN number:   0.13E+00 at (  62,  13,  18)
 
       Time Step   51300   June 27, 2020  02:11:38
       Step Size:    0.151E-02 s, Total Time:      94.90 s
       Pressure Iterations:      5
       Maximum Velocity Error:  0.26E-02 on Mesh   1 at (   0  18  20)
       Maximum Pressure Error:  0.11E-08 on Mesh   1 at (  82  43  32)
       ---------------------------------------------------------------
       Max CFL number:  0.83E+00 at (  83,  43,  31)
       Max divergence:  0.57E-12 at (  82,  43,  33)
       Min divergence: -0.77E-12 at (  82,  43,  32)
       Max VN number:   0.12E+00 at (  60,  32,  18)
 
       Time Step   51400   June 27, 2020  02:12:46
       Step Size:    0.183E-02 s, Total Time:      95.08 s
       Pressure Iterations:      6
       Maximum Velocity Error:  0.30E-02 on Mesh   1 at (   0   5  40)
       Maximum Pressure Error:  0.25E-07 on Mesh   1 at ( 113  28  11)
       ---------------------------------------------------------------
       Max CFL number:  0.87E+00 at ( 124,  37,  39)
       Max divergence:  0.32E-10 at ( 112,  28,   9)
       Min divergence: -0.38E-10 at ( 112,  28,   8)
       Max VN number:   0.13E+00 at (  60,  11,  18)
 
       Time Step   51500   June 27, 2020  02:13:56
       Step Size:    0.201E-02 s, Total Time:      95.28 s
       Pressure Iterations:      6
       Maximum Velocity Error:  0.25E-02 on Mesh   1 at (   0  12  31)
       Maximum Pressure Error:  0.19E-06 on Mesh   1 at ( 145  32   8)
       ---------------------------------------------------------------
       Max CFL number:  0.92E+00 at ( 144,  32,   8)
       Max divergence:  0.25E-09 at ( 144,  32,   8)
       Min divergence: -0.22E-09 at ( 145,  32,   8)
       Max VN number:   0.15E+00 at ( 144,  32,   8)
 
       Time Step   51600   June 27, 2020  02:15:06
       Step Size:    0.197E-02 s, Total Time:      95.47 s
       Pressure Iterations:      5
       Maximum Velocity Error:  0.31E-02 on Mesh   1 at (   0  16  35)
       Maximum Pressure Error:  0.11E-08 on Mesh   1 at (  87  38  27)
       ---------------------------------------------------------------
       Max CFL number:  0.90E+00 at (  90,  33,  28)
       Max divergence:  0.64E-12 at (  82,  43,  23)
       Min divergence: -0.93E-12 at (  87,  38,  27)
       Max VN number:   0.14E+00 at (  59,  30,  18)
 
       Time Step   51700   June 27, 2020  02:16:12
       Step Size:    0.210E-02 s, Total Time:      95.67 s
       Pressure Iterations:      6
       Maximum Velocity Error:  0.19E-02 on Mesh   1 at (   0  29  21)
       Maximum Pressure Error:  0.83E-09 on Mesh   1 at (  56  31  17)
       ---------------------------------------------------------------
       Max CFL number:  0.95E+00 at (  88,  32,  18)
       Max divergence:  0.77E-12 at (  87,  31,  18)
       Min divergence: -0.73E-12 at (  56,  31,  17)
       Max VN number:   0.14E+00 at (  61,  43,  18)
 
       Time Step   51800   June 27, 2020  02:17:16
       Step Size:    0.179E-02 s, Total Time:      95.84 s
       Pressure Iterations:      5
       Maximum Velocity Error:  0.21E-02 on Mesh   1 at (   0  40  26)
       Maximum Pressure Error:  0.77E-09 on Mesh   1 at (  82  43  22)
       ---------------------------------------------------------------
       Max CFL number:  0.89E+00 at (  77,  23,  25)
       Max divergence:  0.50E-12 at (  82,  43,  22)
       Min divergence: -0.61E-12 at (  56,  34,  17)
       Max VN number:   0.14E+00 at (  63,  31,  20)
 
       Time Step   51900   June 27, 2020  02:18:21
       Step Size:    0.171E-02 s, Total Time:      96.02 s
       Pressure Iterations:      5
       Maximum Velocity Error:  0.17E-02 on Mesh   1 at (   0  29  23)
       Maximum Pressure Error:  0.14E-08 on Mesh   1 at (  96  40  24)
       ---------------------------------------------------------------
       Max CFL number:  0.84E+00 at (  94,  38,  27)
       Max divergence:  0.97E-12 at (  96,  40,  24)
       Min divergence: -0.91E-12 at (  96,  38,  22)
       Max VN number:   0.12E+00 at (  97,  39,  24)
 
       Time Step   52000   June 27, 2020  02:19:27
       Step Size:    0.189E-02 s, Total Time:      96.20 s
       Pressure Iterations:      5
       Maximum Velocity Error:  0.28E-02 on Mesh   1 at ( 161  15  20)
       Maximum Pressure Error:  0.76E-09 on Mesh   1 at (  87  43  28)
       ---------------------------------------------------------------
       Max CFL number:  0.85E+00 at (  83,  39,  29)
       Max divergence:  0.57E-12 at ( 126,  26,  23)
       Min divergence: -0.74E-12 at (  56,  21,  17)
       Max VN number:   0.13E+00 at (  56,  26,  17)
 
       Time Step   52100   June 27, 2020  02:20:35
       Step Size:    0.168E-02 s, Total Time:      96.38 s
       Pressure Iterations:      5
       Maximum Velocity Error:  0.30E-02 on Mesh   1 at (   0   8  28)
       Maximum Pressure Error:  0.92E-09 on Mesh   1 at (  56  28  17)
       ---------------------------------------------------------------
       Max CFL number:  0.95E+00 at (  67,  34,  24)
       Max divergence:  0.54E-12 at (  69,  35,  26)
       Min divergence: -0.68E-12 at (  96,  10,  22)
       Max VN number:   0.13E+00 at (  62,  19,  19)
 
       Time Step   52200   June 27, 2020  02:21:42
       Step Size:    0.178E-02 s, Total Time:      96.55 s
       Pressure Iterations:      6
       Maximum Velocity Error:  0.21E-02 on Mesh   1 at (   0  47  35)
       Maximum Pressure Error:  0.11E-08 on Mesh   1 at ( 106  36  23)
       ---------------------------------------------------------------
       Max CFL number:  0.89E+00 at ( 110,  37,  21)
       Max divergence:  0.63E-12 at ( 101,  33,  23)
       Min divergence: -0.90E-12 at ( 106,  36,  23)
       Max VN number:   0.13E+00 at (  56,  34,  17)
 
       Time Step   52300   June 27, 2020  02:22:51
       Step Size:    0.195E-02 s, Total Time:      96.74 s
       Pressure Iterations:      6
       Maximum Velocity Error:  0.25E-02 on Mesh   1 at (   0   6  26)
       Maximum Pressure Error:  0.11E-08 on Mesh   1 at (  96  11  16)
       ---------------------------------------------------------------
       Max CFL number:  0.90E+00 at (  72,   7,  28)
       Max divergence:  0.10E-11 at (  96,  11,  16)
       Min divergence: -0.69E-12 at (  56,  23,  17)
       Max VN number:   0.15E+00 at (  60,  37,  18)
 
       Time Step   52400   June 27, 2020  02:23:59
       Step Size:    0.171E-02 s, Total Time:      96.92 s
       Pressure Iterations:      6
       Maximum Velocity Error:  0.18E-02 on Mesh   1 at ( 161  13  18)
       Maximum Pressure Error:  0.10E-08 on Mesh   1 at (  56  29  17)
       ---------------------------------------------------------------
       Max CFL number:  0.86E+00 at (  86,  47,  21)
       Max divergence:  0.50E-12 at (  82,  43,  19)
       Min divergence: -0.86E-12 at (  56,  35,  17)
       Max VN number:   0.12E+00 at (  56,  30,  17)
 
       Time Step   52500   June 27, 2020  02:25:05
       Step Size:    0.169E-02 s, Total Time:      97.09 s
       Pressure Iterations:      5
       Maximum Velocity Error:  0.25E-02 on Mesh   1 at (   0  40  35)
       Maximum Pressure Error:  0.85E-09 on Mesh   1 at (  56  33  17)
       ---------------------------------------------------------------
       Max CFL number:  0.92E+00 at (  79,  33,  23)
       Max divergence:  0.44E-12 at (  79,  26,  21)
       Min divergence: -0.69E-12 at (  56,  17,  17)
       Max VN number:   0.12E+00 at (  56,  33,  17)
 
       Time Step   52600   June 27, 2020  02:26:11
       Step Size:    0.184E-02 s, Total Time:      97.27 s
       Pressure Iterations:      6
       Maximum Velocity Error:  0.16E-02 on Mesh   1 at (   0  17  35)
       Maximum Pressure Error:  0.81E-09 on Mesh   1 at ( 111  31  19)
       ---------------------------------------------------------------
       Max CFL number:  0.83E+00 at (  86,  36,  24)
       Max divergence:  0.58E-12 at ( 111,  45,  15)
       Min divergence: -0.77E-12 at ( 111,  31,  19)
       Max VN number:   0.15E+00 at (  65,  38,  19)
 
       Time Step   52700   June 27, 2020  02:27:18
       Step Size:    0.180E-02 s, Total Time:      97.45 s
       Pressure Iterations:      5
       Maximum Velocity Error:  0.28E-02 on Mesh   1 at (   0  46  16)
       Maximum Pressure Error:  0.98E-09 on Mesh   1 at (  56  16  17)
       ---------------------------------------------------------------
       Max CFL number:  0.83E+00 at ( 108,  40,  24)
       Max divergence:  0.48E-12 at (  98,  39,  21)
       Min divergence: -0.69E-12 at (  56,  16,  17)
       Max VN number:   0.13E+00 at (  59,  29,  18)
 
       Time Step   52800   June 27, 2020  02:28:26
       Step Size:    0.186E-02 s, Total Time:      97.64 s
       Pressure Iterations:      6
       Maximum Velocity Error:  0.22E-02 on Mesh   1 at (   0  25  13)
       Maximum Pressure Error:  0.91E-09 on Mesh   1 at (  56  28  17)
       ---------------------------------------------------------------
       Max CFL number:  0.86E+00 at (  70,  35,  24)
       Max divergence:  0.58E-12 at (  82,  32,  22)
       Min divergence: -0.72E-12 at (  56,  28,  17)
       Max VN number:   0.16E+00 at (  59,  32,  18)
 
       Time Step   52900   June 27, 2020  02:29:34
       Step Size:    0.165E-02 s, Total Time:      97.83 s
       Pressure Iterations:      5
       Maximum Velocity Error:  0.22E-02 on Mesh   1 at (   0  27  39)
       Maximum Pressure Error:  0.11E-07 on Mesh   1 at (  73   8  25)
       ---------------------------------------------------------------
       Max CFL number:  0.81E+00 at (  72,   8,  25)
       Max divergence:  0.16E-10 at (  71,   8,  25)
       Min divergence: -0.24E-10 at (  72,   8,  25)
       Max VN number:   0.14E+00 at (  70,   8,  26)
 
       Time Step   53000   June 27, 2020  02:30:40
       Step Size:    0.162E-02 s, Total Time:      98.01 s
       Pressure Iterations:      5
       Maximum Velocity Error:  0.20E-02 on Mesh   1 at (   0  31  23)
       Maximum Pressure Error:  0.14E-08 on Mesh   1 at (  61   9  23)
       ---------------------------------------------------------------
       Max CFL number:  0.91E+00 at (  69,  19,  22)
       Max divergence:  0.18E-11 at (  60,   8,  23)
       Min divergence: -0.19E-11 at (  61,  10,  23)
       Max VN number:   0.12E+00 at (  58,  10,  20)
 
       Time Step   53100   June 27, 2020  02:31:46
       Step Size:    0.186E-02 s, Total Time:      98.17 s
       Pressure Iterations:      6
       Maximum Velocity Error:  0.21E-02 on Mesh   1 at (   0  32  22)
       Maximum Pressure Error:  0.31E-06 on Mesh   1 at (  98  10  20)
       ---------------------------------------------------------------
       Max CFL number:  0.83E+00 at (  86,  45,  30)
       Max divergence:  0.65E-09 at ( 100,  10,  20)
       Min divergence: -0.87E-09 at (  99,  10,  20)
       Max VN number:   0.13E+00 at (  72,  26,  19)
 
       Time Step   53200   June 27, 2020  02:32:57
       Step Size:    0.180E-02 s, Total Time:      98.36 s
       Pressure Iterations:      6
       Maximum Velocity Error:  0.16E-02 on Mesh   1 at (   0  42   3)
       Maximum Pressure Error:  0.94E-09 on Mesh   1 at (  56  33  17)
       ---------------------------------------------------------------
       Max CFL number:  0.89E+00 at (  59,  41,  19)
       Max divergence:  0.53E-12 at (  58,  32,  17)
       Min divergence: -0.76E-12 at (  56,  33,  17)
       Max VN number:   0.14E+00 at (  60,  23,  18)
 
       Time Step   53300   June 27, 2020  02:34:01
       Step Size:    0.177E-02 s, Total Time:      98.54 s
       Pressure Iterations:      5
       Maximum Velocity Error:  0.18E-02 on Mesh   1 at (   0  23  26)
       Maximum Pressure Error:  0.90E-09 on Mesh   1 at (  56  16  17)
       ---------------------------------------------------------------
       Max CFL number:  0.89E+00 at (  91,  18,  24)
       Max divergence:  0.65E-12 at (  87,  19,  23)
       Min divergence: -0.79E-12 at (  56,  11,  18)
       Max VN number:   0.13E+00 at (  56,  28,  17)
 
       Time Step   53400   June 27, 2020  02:35:04
       Step Size:    0.136E-02 s, Total Time:      98.69 s
       Pressure Iterations:      4
       Maximum Velocity Error:  0.24E-02 on Mesh   1 at (   0  41  36)
       Maximum Pressure Error:  0.63E-08 on Mesh   1 at (  60  44  25)
       ---------------------------------------------------------------
       Max CFL number:  0.83E+00 at (  60,  44,  25)
       Max divergence:  0.74E-11 at (  62,  44,  24)
       Min divergence: -0.69E-11 at (  62,  44,  25)
       Max VN number:   0.13E+00 at (  60,  44,  24)
 
       Time Step   53500   June 27, 2020  02:36:09
       Step Size:    0.147E-02 s, Total Time:      98.85 s
       Pressure Iterations:      5
       Maximum Velocity Error:  0.26E-02 on Mesh   1 at (   0  12  16)
       Maximum Pressure Error:  0.13E-08 on Mesh   1 at (  58  43  20)
       ---------------------------------------------------------------
       Max CFL number:  0.86E+00 at (  60,  42,  22)
       Max divergence:  0.52E-12 at (  58,  45,  21)
       Min divergence: -0.97E-12 at (  58,  43,  22)
       Max VN number:   0.13E+00 at (  59,  43,  21)
 
       Time Step   53600   June 27, 2020  02:37:14
       Step Size:    0.184E-02 s, Total Time:      99.02 s
       Pressure Iterations:      5
       Maximum Velocity Error:  0.23E-02 on Mesh   1 at (   0  39   9)
       Maximum Pressure Error:  0.82E-09 on Mesh   1 at ( 101  43  32)
       ---------------------------------------------------------------
       Max CFL number:  0.89E+00 at ( 104,  43,  32)
       Max divergence:  0.76E-12 at (  96,  18,  19)
       Min divergence: -0.67E-12 at (  96,  45,  35)
       Max VN number:   0.12E+00 at (  61,  41,  19)
 
       Time Step   53700   June 27, 2020  02:38:24
       Step Size:    0.202E-02 s, Total Time:      99.21 s
       Pressure Iterations:      7
       Maximum Velocity Error:  0.30E-02 on Mesh   1 at (   0  15  19)
       Maximum Pressure Error:  0.85E-09 on Mesh   1 at ( 136  31   9)
       ---------------------------------------------------------------
       Max CFL number:  0.85E+00 at ( 104,  19,  22)
       Max divergence:  0.74E-12 at ( 136,  31,   9)
       Min divergence: -0.70E-12 at (  56,  18,  17)
       Max VN number:   0.13E+00 at (  56,  12,  17)
 
       Time Step   53800   June 27, 2020  02:39:36
       Step Size:    0.175E-02 s, Total Time:      99.41 s
       Pressure Iterations:      5
       Maximum Velocity Error:  0.27E-02 on Mesh   1 at (   0  29   9)
       Maximum Pressure Error:  0.86E-09 on Mesh   1 at (  56  11  17)
       ---------------------------------------------------------------
       Max CFL number:  0.89E+00 at (  59,  16,  21)
       Max divergence:  0.50E-12 at (  92,  27,  29)
       Min divergence: -0.69E-12 at (  56,  11,  17)
       Max VN number:   0.13E+00 at (  59,  14,  18)
 
       Time Step   53900   June 27, 2020  02:40:42
       Step Size:    0.203E-02 s, Total Time:      99.59 s
       Pressure Iterations:      5
       Maximum Velocity Error:  0.29E-02 on Mesh   1 at (   0  33  19)
       Maximum Pressure Error:  0.12E-08 on Mesh   1 at (  82  45  23)
       ---------------------------------------------------------------
       Max CFL number:  0.89E+00 at (  80,  22,  26)
       Max divergence:  0.55E-12 at (  92,  11,  19)
       Min divergence: -0.92E-12 at (  82,  45,  23)
       Max VN number:   0.13E+00 at (  59,  42,  18)
 
       Time Step   54000   June 27, 2020  02:41:50
       Step Size:    0.163E-02 s, Total Time:      99.79 s
       Pressure Iterations:      5
       Maximum Velocity Error:  0.23E-02 on Mesh   1 at (   0  13  21)
       Maximum Pressure Error:  0.10E-08 on Mesh   1 at (  56  45  17)
       ---------------------------------------------------------------
       Max CFL number:  0.83E+00 at (  72,  14,  25)
       Max divergence:  0.38E-12 at (  84,   3,  39)
       Min divergence: -0.71E-12 at (  56,  26,  17)
       Max VN number:   0.12E+00 at (  56,  44,  17)
 
       Time Step   54100   June 27, 2020  02:42:55
       Step Size:    0.180E-02 s, Total Time:      99.96 s
       Pressure Iterations:      6
       Maximum Velocity Error:  0.25E-02 on Mesh   1 at (   0  36  29)
       Maximum Pressure Error:  0.98E-09 on Mesh   1 at (  82  41  24)
       ---------------------------------------------------------------
       Max CFL number:  0.88E+00 at (  83,  33,  21)
       Max divergence:  0.71E-12 at (  82,  37,  22)
       Min divergence: -0.80E-12 at (  82,  41,  24)
       Max VN number:   0.14E+00 at (  58,  42,  18)
 
       Time Step   54125   June 27, 2020  02:43:12
       Step Size:    0.149E-03 s, Total Time:     100.00 s
       Pressure Iterations:      1
       Maximum Velocity Error:  0.19E-02 on Mesh   1 at (   0  31  23)
       Maximum Pressure Error:  0.72E-09 on Mesh   1 at (  56  27  17)
       ---------------------------------------------------------------
       Max CFL number:  0.69E-01 at (  72,  29,  24)
       Max divergence:  0.17E-12 at (  62,  46,  18)
       Min divergence: -0.26E-12 at ( 149,  17,  48)
       Max VN number:   0.93E-02 at (  56,  31,  17)
 


 Time Stepping Wall Clock Time (s):    37434.285
 Total Elapsed Wall Clock Time (s):    37438.510

STOP: FDS completed successfully (CHID: ribbed_channel_160)
