
 Fire Dynamics Simulator

 Current Date     : June 26, 2020  16:19:15
 Revision         : -AMG
 Revision Date    : Fri Jun 26 15:19:14 2020 +0200
 Compiler         : Intel ifort 19.0.5.281
 Compilation Date : Jun 26, 2020 15:25:32

 MPI Enabled;    Number of MPI Processes:       4
 OpenMP Enabled; Number of OpenMP Threads:      4

 MPI version: 3.1
 MPI library version: Intel(R) MPI Library 2018 Update 1 for Linux* OS


 Job TITLE        : Ribbed channel flow at Re_D=40,000
 Job ID string    : ribbed_channel_20_4mesh_uscarc


 Grid Dimensions, Mesh     1

   Cells in the X Direction             5
   Cells in the Y Direction             6
   Cells in the Z Direction             6
   Number of Grid Cells               180


 Physical Dimensions, Mesh     1

   Length (m)                       0.250
   Width  (m)                       0.300
   Height (m)                       0.300
   Initial Time Step (s)            0.048

 Grid Dimensions, Mesh     2

   Cells in the X Direction             5
   Cells in the Y Direction             6
   Cells in the Z Direction             6
   Number of Grid Cells               180


 Physical Dimensions, Mesh     2

   Length (m)                       0.250
   Width  (m)                       0.300
   Height (m)                       0.300
   Initial Time Step (s)            0.048

 Grid Dimensions, Mesh     3

   Cells in the X Direction             5
   Cells in the Y Direction             6
   Cells in the Z Direction             6
   Number of Grid Cells               180


 Physical Dimensions, Mesh     3

   Length (m)                       0.250
   Width  (m)                       0.300
   Height (m)                       0.300
   Initial Time Step (s)            0.048

 Grid Dimensions, Mesh     4

   Cells in the X Direction             5
   Cells in the Y Direction             6
   Cells in the Z Direction             6
   Number of Grid Cells               180


 Physical Dimensions, Mesh     4

   Length (m)                       0.250
   Width  (m)                       0.300
   Height (m)                       0.300
   Initial Time Step (s)            0.048

Total Number of Grid Cells           720


 Miscellaneous Parameters

   Simulation Start Time (s)          0.0
   Simulation End Time (s)          100.0
   LES Calculation
   Eddy Viscosity:           Deardorff Model (C_DEARDORFF = 0.10)
   Near-wall Eddy Viscosity: Smagorinsky with Van Driest damping (C_SMAGORINSKY = 0.20)
   Turbulent Prandtl Number:         0.50
   Turbulent Schmidt Number:         0.50
   Ambient Temperature (C):         20.00


 Mass Fraction Transformation Matrix to Convert Species Mixtures (Columns) to Primitive Species (Rows)

                         AIR     
   AIR                   1.000000


 Primitive Species Information

   AIR
   Gas Species
   Molecular Weight (g/mol)            28.01340
   Ambient Density (kg/m^3)            1.165
   Enthalpy of Formation (J/kg)        0.00E+00


 Tracked (Lumped) Species Information

   AIR
   Molecular Weight (g/mol)            28.01340
   Ambient Density (kg/m^3)            1.165
   Initial Mass Fraction               1.000
   Enthalpy of Formation (J/kg)      0.00E+00

   Sub Species                    Mass Fraction     Mole Fraction
   AIR                            1.000000E+00      1.000000E+00
 
     Viscosity (kg/m/s) Ambient,  293 K:  1.20E-05
                                  500 K:  1.20E-05
                                 1000 K:  1.20E-05
                                 1500 K:  1.20E-05
   Therm. Cond. (W/m/K) Ambient,  293 K:  1.76E-02
                                  500 K:  1.76E-02
                                 1000 K:  1.76E-02
                                 1500 K:  1.76E-02
        Enthalpy (J/kg) Ambient,  293 K:  3.05E+05
                                  500 K:  5.19E+05
                                 1000 K:  1.04E+06
                                 1500 K:  1.56E+06
    Spec. Heat (J/kg/K) Ambient,  293 K:  1.04E+03
                                  500 K:  1.04E+03
                                 1000 K:  1.04E+03
                                 1500 K:  1.04E+03
   Diff. Coeff. (m^2/s) Ambient,  293 K:  1.99E-05
                                  500 K:  4.93E-05
                                 1000 K:  1.57E-04
                                 1500 K:  3.07E-04


 Material Information


 Surface Conditions

   0 INERT

   1 wall (DEFAULT)

   2 OPEN
     Passive Vent to Atmosphere

   3 MIRROR
     Symmetry Plane

   4 INTERPOLATED

   5 PERIODIC

   6 HVAC

   7 MASSLESS TRACER

   8 DROPLET

   9 EVACUATION_OUTFLOW
     Normal Velocity (m/s)         0.000

  10 MASSLESS TARGET

  11 PERIODIC WIND


 Device Coordinates

     1 Coords:     -0.375000      0.000000      0.150000, Make: null, ID: Ub, Quantity: U-VELOCITY
     2 Coords:     -0.375000      0.000000      0.025000, Make: null, ID: u_strm_bot, Quantity: U-VELOCITY
     3 Coords:     -0.325000      0.000000      0.025000, Make: null, ID: u_strm_bot, Quantity: U-VELOCITY
     4 Coords:     -0.275000      0.000000      0.025000, Make: null, ID: u_strm_bot, Quantity: U-VELOCITY
     5 Coords:     -0.225000      0.000000      0.025000, Make: null, ID: u_strm_bot, Quantity: U-VELOCITY
     6 Coords:     -0.175000      0.000000      0.025000, Make: null, ID: u_strm_bot, Quantity: U-VELOCITY
     7 Coords:     -0.125000      0.000000      0.025000, Make: null, ID: u_strm_bot, Quantity: U-VELOCITY
     8 Coords:     -0.075000      0.000000      0.025000, Make: null, ID: u_strm_bot, Quantity: U-VELOCITY
     9 Coords:     -0.025000      0.000000      0.025000, Make: null, ID: u_strm_bot, Quantity: U-VELOCITY
    10 Coords:      0.025000      0.000000      0.025000, Make: null, ID: u_strm_bot, Quantity: U-VELOCITY
    11 Coords:      0.075000      0.000000      0.025000, Make: null, ID: u_strm_bot, Quantity: U-VELOCITY
    12 Coords:      0.125000      0.000000      0.025000, Make: null, ID: u_strm_bot, Quantity: U-VELOCITY
    13 Coords:      0.175000      0.000000      0.025000, Make: null, ID: u_strm_bot, Quantity: U-VELOCITY
    14 Coords:      0.225000      0.000000      0.025000, Make: null, ID: u_strm_bot, Quantity: U-VELOCITY
    15 Coords:      0.275000      0.000000      0.025000, Make: null, ID: u_strm_bot, Quantity: U-VELOCITY
    16 Coords:      0.325000      0.000000      0.025000, Make: null, ID: u_strm_bot, Quantity: U-VELOCITY
    17 Coords:      0.375000      0.000000      0.025000, Make: null, ID: u_strm_bot, Quantity: U-VELOCITY
    18 Coords:      0.425000      0.000000      0.025000, Make: null, ID: u_strm_bot, Quantity: U-VELOCITY
    19 Coords:      0.475000      0.000000      0.025000, Make: null, ID: u_strm_bot, Quantity: U-VELOCITY
    20 Coords:      0.525000      0.000000      0.025000, Make: null, ID: u_strm_bot, Quantity: U-VELOCITY
    21 Coords:      0.575000      0.000000      0.025000, Make: null, ID: u_strm_bot, Quantity: U-VELOCITY
    22 Coords:     -0.025000      0.000000      0.125000, Make: null, ID: u_strm_rib, Quantity: U-VELOCITY
    23 Coords:      0.025000      0.000000      0.125000, Make: null, ID: u_strm_rib, Quantity: U-VELOCITY
    24 Coords:     -0.375000      0.000000      0.025000, Make: null, ID: mu_strm_bot, Quantity: VISCOSITY
    25 Coords:     -0.325000      0.000000      0.025000, Make: null, ID: mu_strm_bot, Quantity: VISCOSITY
    26 Coords:     -0.275000      0.000000      0.025000, Make: null, ID: mu_strm_bot, Quantity: VISCOSITY
    27 Coords:     -0.225000      0.000000      0.025000, Make: null, ID: mu_strm_bot, Quantity: VISCOSITY
    28 Coords:     -0.175000      0.000000      0.025000, Make: null, ID: mu_strm_bot, Quantity: VISCOSITY
    29 Coords:     -0.125000      0.000000      0.025000, Make: null, ID: mu_strm_bot, Quantity: VISCOSITY
    30 Coords:     -0.075000      0.000000      0.025000, Make: null, ID: mu_strm_bot, Quantity: VISCOSITY
    31 Coords:     -0.025000      0.000000      0.025000, Make: null, ID: mu_strm_bot, Quantity: VISCOSITY
    32 Coords:      0.025000      0.000000      0.025000, Make: null, ID: mu_strm_bot, Quantity: VISCOSITY
    33 Coords:      0.075000      0.000000      0.025000, Make: null, ID: mu_strm_bot, Quantity: VISCOSITY
    34 Coords:      0.125000      0.000000      0.025000, Make: null, ID: mu_strm_bot, Quantity: VISCOSITY
    35 Coords:      0.175000      0.000000      0.025000, Make: null, ID: mu_strm_bot, Quantity: VISCOSITY
    36 Coords:      0.225000      0.000000      0.025000, Make: null, ID: mu_strm_bot, Quantity: VISCOSITY
    37 Coords:      0.275000      0.000000      0.025000, Make: null, ID: mu_strm_bot, Quantity: VISCOSITY
    38 Coords:      0.325000      0.000000      0.025000, Make: null, ID: mu_strm_bot, Quantity: VISCOSITY
    39 Coords:      0.375000      0.000000      0.025000, Make: null, ID: mu_strm_bot, Quantity: VISCOSITY
    40 Coords:      0.425000      0.000000      0.025000, Make: null, ID: mu_strm_bot, Quantity: VISCOSITY
    41 Coords:      0.475000      0.000000      0.025000, Make: null, ID: mu_strm_bot, Quantity: VISCOSITY
    42 Coords:      0.525000      0.000000      0.025000, Make: null, ID: mu_strm_bot, Quantity: VISCOSITY
    43 Coords:      0.575000      0.000000      0.025000, Make: null, ID: mu_strm_bot, Quantity: VISCOSITY
    44 Coords:     -0.375000      0.000000      0.025000, Make: null, ID: urms_strm_bot, Quantity: U-VELOCITY
    45 Coords:     -0.325000      0.000000      0.025000, Make: null, ID: urms_strm_bot, Quantity: U-VELOCITY
    46 Coords:     -0.275000      0.000000      0.025000, Make: null, ID: urms_strm_bot, Quantity: U-VELOCITY
    47 Coords:     -0.225000      0.000000      0.025000, Make: null, ID: urms_strm_bot, Quantity: U-VELOCITY
    48 Coords:     -0.175000      0.000000      0.025000, Make: null, ID: urms_strm_bot, Quantity: U-VELOCITY
    49 Coords:     -0.125000      0.000000      0.025000, Make: null, ID: urms_strm_bot, Quantity: U-VELOCITY
    50 Coords:     -0.075000      0.000000      0.025000, Make: null, ID: urms_strm_bot, Quantity: U-VELOCITY
    51 Coords:     -0.025000      0.000000      0.025000, Make: null, ID: urms_strm_bot, Quantity: U-VELOCITY
    52 Coords:      0.025000      0.000000      0.025000, Make: null, ID: urms_strm_bot, Quantity: U-VELOCITY
    53 Coords:      0.075000      0.000000      0.025000, Make: null, ID: urms_strm_bot, Quantity: U-VELOCITY
    54 Coords:      0.125000      0.000000      0.025000, Make: null, ID: urms_strm_bot, Quantity: U-VELOCITY
    55 Coords:      0.175000      0.000000      0.025000, Make: null, ID: urms_strm_bot, Quantity: U-VELOCITY
    56 Coords:      0.225000      0.000000      0.025000, Make: null, ID: urms_strm_bot, Quantity: U-VELOCITY
    57 Coords:      0.275000      0.000000      0.025000, Make: null, ID: urms_strm_bot, Quantity: U-VELOCITY
    58 Coords:      0.325000      0.000000      0.025000, Make: null, ID: urms_strm_bot, Quantity: U-VELOCITY
    59 Coords:      0.375000      0.000000      0.025000, Make: null, ID: urms_strm_bot, Quantity: U-VELOCITY
    60 Coords:      0.425000      0.000000      0.025000, Make: null, ID: urms_strm_bot, Quantity: U-VELOCITY
    61 Coords:      0.475000      0.000000      0.025000, Make: null, ID: urms_strm_bot, Quantity: U-VELOCITY
    62 Coords:      0.525000      0.000000      0.025000, Make: null, ID: urms_strm_bot, Quantity: U-VELOCITY
    63 Coords:      0.575000      0.000000      0.025000, Make: null, ID: urms_strm_bot, Quantity: U-VELOCITY
    64 Coords:     -0.025000      0.000000      0.125000, Make: null, ID: urms_strm_rib, Quantity: U-VELOCITY
    65 Coords:      0.025000      0.000000      0.125000, Make: null, ID: urms_strm_rib, Quantity: U-VELOCITY
    66 Coords:      0.000000      0.000000      0.125000, Make: null, ID: u_prof_rib, Quantity: U-VELOCITY
    67 Coords:      0.000000      0.000000      0.175000, Make: null, ID: u_prof_rib, Quantity: U-VELOCITY
    68 Coords:      0.000000      0.000000      0.225000, Make: null, ID: u_prof_rib, Quantity: U-VELOCITY
    69 Coords:      0.000000      0.000000      0.275000, Make: null, ID: u_prof_rib, Quantity: U-VELOCITY
    70 Coords:      0.000000      0.000000      0.125000, Make: null, ID: urms_prof_rib, Quantity: U-VELOCITY
    71 Coords:      0.000000      0.000000      0.175000, Make: null, ID: urms_prof_rib, Quantity: U-VELOCITY
    72 Coords:      0.000000      0.000000      0.225000, Make: null, ID: urms_prof_rib, Quantity: U-VELOCITY
    73 Coords:      0.000000      0.000000      0.275000, Make: null, ID: urms_prof_rib, Quantity: U-VELOCITY
    74 Coords:      0.000000      0.000000      0.125000, Make: null, ID: mu_prof_rib, Quantity: VISCOSITY
    75 Coords:      0.000000      0.000000      0.175000, Make: null, ID: mu_prof_rib, Quantity: VISCOSITY
    76 Coords:      0.000000      0.000000      0.225000, Make: null, ID: mu_prof_rib, Quantity: VISCOSITY
    77 Coords:      0.000000      0.000000      0.275000, Make: null, ID: mu_prof_rib, Quantity: VISCOSITY


 Slice File Information, Mesh     1

   Sampling Interval (s)             0.100

   1 Nodes:   0   5   4   4   0   6, Quantity: PRESSURE
   2 Nodes:   0   5   4   4   0   6, Quantity: VISCOSITY
   3 Nodes:   0   5   3   3   0   6, Quantity: VELOCITY
   4 Nodes:   0   5   3   3   0   6, Quantity: U-VELOCITY
   5 Nodes:   0   5   3   3   0   6, Quantity: V-VELOCITY
   6 Nodes:   0   5   3   3   0   6, Quantity: W-VELOCITY


 Boundary File Information

   Sampling Interval (s)             0.200

   1 Quantity: VISCOUS WALL UNITS
   2 Quantity: FRICTION VELOCITY


 SCARC Information

   Discretization             STRUCTURED
   Global solver                  KRYLOV
   Storage technique             COMPACT
   Preconditioner                PARDISO
   MKL precision                  DOUBLE
   Max iterations                   1000
   Stopping accuracy            0.10E-07
 
 

 Run Time Diagnostics

       Time Step       1   June 26, 2020  16:19:15
       Step Size:    0.383E-01 s, Total Time:       0.04 s
       Pressure Iterations:      3
       Maximum Velocity Error:  0.13E-01 on Mesh   2 at (   4   4   2)
       Maximum Pressure Error:  0.74E-09 on Mesh   1 at (   1   3   4)
       ScaRC: iterations    36, residual  0.92E-08, convergence rate   0.48E+00
       ---------------------------------------------------------------
       Mesh    1
       Max CFL number:  0.82E+00 at (   5,   4,   1)
       Max divergence:  0.30E-10 at (   1,   4,   4)
       Min divergence: -0.32E-10 at (   1,   3,   4)
       Max VN number:   0.15E+00 at (   3,   1,   6)
       Mesh    2
       Max CFL number:  0.88E+00 at (   2,   5,   2)
       Max divergence:  0.24E-10 at (   5,   1,   1)
       Min divergence: -0.20E-10 at (   5,   6,   2)
       Max VN number:   0.15E+00 at (   2,   1,   6)
       Mesh    3
       Max CFL number:  0.87E+00 at (   1,   3,   3)
       Max divergence:  0.11E-10 at (   1,   6,   6)
       Min divergence: -0.16E-10 at (   1,   1,   5)
       Max VN number:   0.16E+00 at (   3,   1,   1)
       Mesh    4
       Max CFL number:  0.81E+00 at (   4,   3,   5)
       Max divergence:  0.41E-10 at (   5,   4,   5)
       Min divergence: -0.41E-10 at (   5,   1,   1)
       Max VN number:   0.15E+00 at (   3,   1,   6)
 
       Time Step       2   June 26, 2020  16:19:15
       Step Size:    0.263E-01 s, Total Time:       0.06 s
       Pressure Iterations:      4
       Maximum Velocity Error:  0.21E-01 on Mesh   2 at (   4   4   1)
       Maximum Pressure Error:  0.15E-08 on Mesh   1 at (   1   3   4)
       ScaRC: iterations    37, residual  0.61E-08, convergence rate   0.48E+00
       ---------------------------------------------------------------
       Mesh    1
       Max CFL number:  0.69E+00 at (   5,   3,   5)
       Max divergence:  0.23E-10 at (   1,   4,   4)
       Min divergence: -0.22E-10 at (   1,   3,   4)
       Max VN number:   0.11E+00 at (   5,   1,   1)
       Mesh    2
       Max CFL number:  0.80E+00 at (   2,   5,   3)
       Max divergence:  0.27E-11 at (   5,   6,   6)
       Min divergence: -0.29E-11 at (   5,   1,   5)
       Max VN number:   0.11E+00 at (   1,   1,   1)
       Mesh    3
       Max CFL number:  0.77E+00 at (   1,   2,   3)
       Max divergence:  0.14E-10 at (   1,   6,   6)
       Min divergence: -0.15E-10 at (   1,   1,   5)
       Max VN number:   0.11E+00 at (   1,   1,   6)
       Mesh    4
       Max CFL number:  0.68E+00 at (   1,   2,   5)
       Max divergence:  0.98E-11 at (   5,   4,   4)
       Min divergence: -0.77E-11 at (   5,   4,   5)
       Max VN number:   0.11E+00 at (   3,   1,   6)
 
       Time Step       3   June 26, 2020  16:19:15
       Step Size:    0.289E-01 s, Total Time:       0.09 s
       Pressure Iterations:      3
       Maximum Velocity Error:  0.22E-01 on Mesh   2 at (   4   1   1)
       Maximum Pressure Error:  0.16E-08 on Mesh   1 at (   1   3   4)
       ScaRC: iterations    37, residual  0.52E-08, convergence rate   0.47E+00
       ---------------------------------------------------------------
       Mesh    1
       Max CFL number:  0.77E+00 at (   5,   3,   3)
       Max divergence:  0.17E-10 at (   1,   4,   4)
       Min divergence: -0.20E-10 at (   1,   3,   4)
       Max VN number:   0.14E+00 at (   5,   1,   6)
       Mesh    2
       Max CFL number:  0.92E+00 at (   5,   4,   3)
       Max divergence:  0.25E-11 at (   1,   3,   4)
       Min divergence: -0.28E-11 at (   1,   5,   5)
       Max VN number:   0.16E+00 at (   4,   6,   6)
       Mesh    3
       Max CFL number:  0.92E+00 at (   1,   4,   3)
       Max divergence:  0.17E-10 at (   1,   6,   6)
       Min divergence: -0.15E-10 at (   1,   1,   5)
       Max VN number:   0.15E+00 at (   1,   6,   6)
       Mesh    4
       Max CFL number:  0.75E+00 at (   1,   5,   5)
       Max divergence:  0.12E-10 at (   5,   4,   4)
       Min divergence: -0.88E-11 at (   5,   4,   5)
       Max VN number:   0.14E+00 at (   1,   1,   6)
 
       Time Step       4   June 26, 2020  16:19:15
       Step Size:    0.289E-01 s, Total Time:       0.12 s
       Pressure Iterations:      3
       Maximum Velocity Error:  0.15E-01 on Mesh   2 at (   4   1   1)
       Maximum Pressure Error:  0.92E-09 on Mesh   1 at (   1   4   3)
       ScaRC: iterations    37, residual  0.38E-08, convergence rate   0.47E+00
       ---------------------------------------------------------------
       Mesh    1
       Max CFL number:  0.78E+00 at (   5,   5,   3)
       Max divergence:  0.14E-10 at (   1,   4,   4)
       Min divergence: -0.13E-10 at (   1,   4,   3)
       Max VN number:   0.14E+00 at (   5,   1,   6)
       Mesh    2
       Max CFL number:  0.89E+00 at (   2,   4,   2)
       Max divergence:  0.41E-11 at (   5,   2,   4)
       Min divergence: -0.46E-11 at (   5,   6,   5)
       Max VN number:   0.16E+00 at (   2,   1,   3)
       Mesh    3
       Max CFL number:  0.88E+00 at (   1,   4,   3)
       Max divergence:  0.79E-11 at (   1,   1,   2)
       Min divergence: -0.78E-11 at (   1,   2,   5)
       Max VN number:   0.16E+00 at (   1,   6,   6)
       Mesh    4
       Max CFL number:  0.71E+00 at (   1,   4,   5)
       Max divergence:  0.74E-11 at (   5,   4,   4)
       Min divergence: -0.77E-11 at (   5,   6,   6)
       Max VN number:   0.14E+00 at (   1,   1,   6)
 
       Time Step       5   June 26, 2020  16:19:15
       Step Size:    0.289E-01 s, Total Time:       0.15 s
       Pressure Iterations:      2
       Maximum Velocity Error:  0.10E-01 on Mesh   2 at (   4   4   2)
       Maximum Pressure Error:  0.11E-08 on Mesh   4 at (   5   6   6)
       ScaRC: iterations    37, residual  0.45E-08, convergence rate   0.47E+00
       ---------------------------------------------------------------
       Mesh    1
       Max CFL number:  0.78E+00 at (   5,   3,   3)
       Max divergence:  0.11E-10 at (   1,   4,   4)
       Min divergence: -0.14E-10 at (   1,   4,   3)
       Max VN number:   0.13E+00 at (   5,   1,   6)
       Mesh    2
       Max CFL number:  0.85E+00 at (   2,   4,   2)
       Max divergence:  0.48E-11 at (   5,   6,   6)
       Min divergence: -0.63E-11 at (   5,   2,   5)
       Max VN number:   0.16E+00 at (   2,   1,   2)
       Mesh    3
       Max CFL number:  0.84E+00 at (   2,   4,   3)
       Max divergence:  0.13E-10 at (   1,   1,   2)
       Min divergence: -0.75E-11 at (   1,   2,   5)
       Max VN number:   0.15E+00 at (   1,   6,   6)
       Mesh    4
       Max CFL number:  0.67E+00 at (   1,   4,   5)
       Max divergence:  0.13E-10 at (   5,   4,   4)
       Min divergence: -0.15E-10 at (   5,   6,   6)
       Max VN number:   0.13E+00 at (   1,   1,   6)
 
       Time Step       6   June 26, 2020  16:19:15
       Step Size:    0.289E-01 s, Total Time:       0.18 s
       Pressure Iterations:      1
       Maximum Velocity Error:  0.15E-01 on Mesh   2 at (   4   2   2)
       Maximum Pressure Error:  0.14E-08 on Mesh   4 at (   5   6   6)
       ScaRC: iterations    37, residual  0.51E-08, convergence rate   0.47E+00
       ---------------------------------------------------------------
       Mesh    1
       Max CFL number:  0.77E+00 at (   5,   3,   3)
       Max divergence:  0.78E-11 at (   1,   2,   4)
       Min divergence: -0.78E-11 at (   1,   4,   3)
       Max VN number:   0.13E+00 at (   4,   6,   1)
       Mesh    2
       Max CFL number:  0.80E+00 at (   1,   4,   2)
       Max divergence:  0.76E-11 at (   5,   1,   2)
       Min divergence: -0.11E-10 at (   5,   1,   5)
       Max VN number:   0.17E+00 at (   1,   1,   2)
       Mesh    3
       Max CFL number:  0.79E+00 at (   1,   3,   4)
       Max divergence:  0.84E-11 at (   1,   1,   2)
       Min divergence: -0.50E-11 at (   5,   3,   3)
       Max VN number:   0.15E+00 at (   1,   6,   6)
       Mesh    4
       Max CFL number:  0.65E+00 at (   1,   3,   5)
       Max divergence:  0.18E-10 at (   5,   4,   4)
       Min divergence: -0.19E-10 at (   5,   3,   4)
       Max VN number:   0.13E+00 at (   1,   1,   6)
 
       Time Step       7   June 26, 2020  16:19:15
       Step Size:    0.318E-01 s, Total Time:       0.21 s
       Pressure Iterations:      1
       Maximum Velocity Error:  0.19E-01 on Mesh   2 at (   3   4   2)
       Maximum Pressure Error:  0.21E-08 on Mesh   1 at (   1   3   4)
       ScaRC: iterations    37, residual  0.82E-08, convergence rate   0.48E+00
       ---------------------------------------------------------------
       Mesh    1
       Max CFL number:  0.81E+00 at (   5,   3,   3)
       Max divergence:  0.21E-10 at (   1,   4,   2)
       Min divergence: -0.33E-10 at (   1,   3,   4)
       Max VN number:   0.14E+00 at (   5,   1,   3)
       Mesh    2
       Max CFL number:  0.85E+00 at (   5,   3,   4)
       Max divergence:  0.62E-11 at (   5,   3,   2)
       Min divergence: -0.87E-11 at (   5,   1,   5)
       Max VN number:   0.18E+00 at (   1,   1,   2)
       Mesh    3
       Max CFL number:  0.87E+00 at (   2,   3,   4)
       Max divergence:  0.21E-10 at (   1,   1,   1)
       Min divergence: -0.16E-10 at (   1,   1,   5)
       Max VN number:   0.16E+00 at (   1,   6,   6)
       Mesh    4
       Max CFL number:  0.71E+00 at (   1,   3,   5)
       Max divergence:  0.22E-10 at (   5,   4,   4)
       Min divergence: -0.21E-10 at (   5,   6,   6)
       Max VN number:   0.14E+00 at (   1,   1,   6)
 
       Time Step       8   June 26, 2020  16:19:15
       Step Size:    0.318E-01 s, Total Time:       0.24 s
       Pressure Iterations:      1
       Maximum Velocity Error:  0.20E-01 on Mesh   2 at (   3   4   2)
       Maximum Pressure Error:  0.26E-08 on Mesh   1 at (   1   3   4)
       ScaRC: iterations    37, residual  0.99E-08, convergence rate   0.48E+00
       ---------------------------------------------------------------
       Mesh    1
       Max CFL number:  0.81E+00 at (   4,   3,   2)
       Max divergence:  0.25E-10 at (   1,   4,   2)
       Min divergence: -0.40E-10 at (   1,   3,   4)
       Max VN number:   0.15E+00 at (   5,   1,   2)
       Mesh    2
       Max CFL number:  0.84E+00 at (   5,   4,   5)
       Max divergence:  0.74E-11 at (   5,   1,   2)
       Min divergence: -0.11E-10 at (   5,   1,   5)
       Max VN number:   0.17E+00 at (   1,   1,   2)
       Mesh    3
       Max CFL number:  0.88E+00 at (   1,   4,   4)
       Max divergence:  0.25E-10 at (   1,   1,   1)
       Min divergence: -0.20E-10 at (   1,   1,   5)
       Max VN number:   0.16E+00 at (   1,   1,   6)
       Mesh    4
       Max CFL number:  0.72E+00 at (   1,   3,   5)
       Max divergence:  0.26E-10 at (   5,   4,   4)
       Min divergence: -0.25E-10 at (   5,   4,   3)
       Max VN number:   0.13E+00 at (   1,   6,   6)
 
       Time Step       9   June 26, 2020  16:19:15
       Step Size:    0.318E-01 s, Total Time:       0.28 s
       Pressure Iterations:      1
       Maximum Velocity Error:  0.13E-01 on Mesh   2 at (   3   4   2)
       Maximum Pressure Error:  0.16E-08 on Mesh   4 at (   5   6   6)
       ScaRC: iterations    38, residual  0.36E-08, convergence rate   0.47E+00
       ---------------------------------------------------------------
       Mesh    1
       Max CFL number:  0.79E+00 at (   4,   3,   2)
       Max divergence:  0.13E-10 at (   1,   4,   3)
       Min divergence: -0.15E-10 at (   1,   1,   1)
       Max VN number:   0.15E+00 at (   5,   6,   2)
       Mesh    2
       Max CFL number:  0.84E+00 at (   5,   4,   5)
       Max divergence:  0.10E-10 at (   5,   1,   1)
       Min divergence: -0.11E-10 at (   5,   1,   6)
       Max VN number:   0.16E+00 at (   1,   6,   2)
       Mesh    3
       Max CFL number:  0.89E+00 at (   2,   3,   4)
       Max divergence:  0.64E-11 at (   1,   1,   6)
       Min divergence: -0.52E-11 at (   1,   6,   6)
       Max VN number:   0.16E+00 at (   1,   1,   6)
       Mesh    4
       Max CFL number:  0.75E+00 at (   1,   3,   3)
       Max divergence:  0.13E-10 at (   5,   4,   4)
       Min divergence: -0.16E-10 at (   5,   6,   6)
       Max VN number:   0.13E+00 at (   1,   6,   6)
 
       Time Step      10   June 26, 2020  16:19:15
       Step Size:    0.318E-01 s, Total Time:       0.31 s
       Pressure Iterations:      1
       Maximum Velocity Error:  0.94E-02 on Mesh   2 at (   4   5   2)
       Maximum Pressure Error:  0.18E-08 on Mesh   4 at (   5   6   6)
       ScaRC: iterations    38, residual  0.42E-08, convergence rate   0.47E+00
       ---------------------------------------------------------------
       Mesh    1
       Max CFL number:  0.77E+00 at (   4,   4,   2)
       Max divergence:  0.12E-10 at (   1,   4,   3)
       Min divergence: -0.98E-11 at (   1,   1,   1)
       Max VN number:   0.14E+00 at (   5,   6,   2)
       Mesh    2
       Max CFL number:  0.83E+00 at (   5,   4,   5)
       Max divergence:  0.11E-10 at (   5,   1,   1)
       Min divergence: -0.85E-11 at (   5,   1,   6)
       Max VN number:   0.15E+00 at (   5,   6,   6)
       Mesh    3
       Max CFL number:  0.89E+00 at (   3,   4,   4)
       Max divergence:  0.54E-11 at (   1,   1,   6)
       Min divergence: -0.42E-11 at (   5,   2,   3)
       Max VN number:   0.16E+00 at (   2,   1,   6)
       Mesh    4
       Max CFL number:  0.78E+00 at (   1,   3,   3)
       Max divergence:  0.14E-10 at (   5,   4,   4)
       Min divergence: -0.20E-10 at (   5,   6,   6)
       Max VN number:   0.13E+00 at (   1,   6,   6)
 
       Time Step      20   June 26, 2020  16:19:16
       Step Size:    0.318E-01 s, Total Time:       0.63 s
       Pressure Iterations:      1
       Maximum Velocity Error:  0.86E-02 on Mesh   2 at (   3   3   2)
       Maximum Pressure Error:  0.52E-08 on Mesh   4 at (   5   6   6)
       ScaRC: iterations    39, residual  0.22E-08, convergence rate   0.46E+00
       ---------------------------------------------------------------
       Mesh    1
       Max CFL number:  0.81E+00 at (   2,   3,   3)
       Max divergence:  0.78E-11 at (   2,   6,   6)
       Min divergence: -0.59E-11 at (   5,   1,   1)
       Max VN number:   0.14E+00 at (   5,   1,   2)
       Mesh    2
       Max CFL number:  0.88E+00 at (   5,   3,   5)
       Max divergence:  0.44E-11 at (   1,   4,   3)
       Min divergence: -0.30E-11 at (   1,   5,   3)
       Max VN number:   0.21E+00 at (   2,   1,   2)
       Mesh    3
       Max CFL number:  0.92E+00 at (   3,   4,   5)
       Max divergence:  0.50E-11 at (   5,   3,   3)
       Min divergence: -0.78E-11 at (   5,   1,   1)
       Max VN number:   0.17E+00 at (   1,   6,   6)
       Mesh    4
       Max CFL number:  0.92E+00 at (   2,   3,   5)
       Max divergence:  0.46E-11 at (   5,   4,   3)
       Min divergence: -0.62E-10 at (   5,   6,   6)
       Max VN number:   0.17E+00 at (   1,   6,   6)
 
       Time Step      30   June 26, 2020  16:19:16
       Step Size:    0.285E-01 s, Total Time:       0.94 s
       Pressure Iterations:      1
       Maximum Velocity Error:  0.11E-01 on Mesh   2 at (   3   3   2)
       Maximum Pressure Error:  0.64E-08 on Mesh   4 at (   5   6   6)
       ScaRC: iterations    39, residual  0.26E-08, convergence rate   0.46E+00
       ---------------------------------------------------------------
       Mesh    1
       Max CFL number:  0.82E+00 at (   3,   3,   5)
       Max divergence:  0.98E-11 at (   2,   6,   6)
       Min divergence: -0.63E-11 at (   1,   2,   4)
       Max VN number:   0.14E+00 at (   2,   6,   6)
       Mesh    2
       Max CFL number:  0.86E+00 at (   4,   3,   4)
       Max divergence:  0.17E-10 at (   2,   5,   3)
       Min divergence: -0.25E-10 at (   2,   4,   3)
       Max VN number:   0.20E+00 at (   2,   3,   2)
       Mesh    3
       Max CFL number:  0.90E+00 at (   4,   4,   5)
       Max divergence:  0.58E-11 at (   1,   6,   4)
       Min divergence: -0.77E-11 at (   5,   1,   1)
       Max VN number:   0.16E+00 at (   3,   6,   6)
       Mesh    4
       Max CFL number:  0.85E+00 at (   1,   4,   4)
       Max divergence:  0.34E-11 at (   5,   3,   4)
       Min divergence: -0.67E-10 at (   5,   6,   6)
       Max VN number:   0.15E+00 at (   1,   1,   6)
 
       Time Step      40   June 26, 2020  16:19:16
       Step Size:    0.285E-01 s, Total Time:       1.23 s
       Pressure Iterations:      1
       Maximum Velocity Error:  0.58E-02 on Mesh   2 at (   3   4   2)
       Maximum Pressure Error:  0.73E-08 on Mesh   4 at (   5   6   6)
       ScaRC: iterations    39, residual  0.29E-08, convergence rate   0.46E+00
       ---------------------------------------------------------------
       Mesh    1
       Max CFL number:  0.86E+00 at (   2,   4,   4)
       Max divergence:  0.12E-10 at (   2,   6,   6)
       Min divergence: -0.83E-11 at (   1,   2,   4)
       Max VN number:   0.14E+00 at (   1,   6,   6)
       Mesh    2
       Max CFL number:  0.95E+00 at (   5,   4,   5)
       Max divergence:  0.62E-11 at (   1,   6,   6)
       Min divergence: -0.26E-11 at (   5,   5,   3)
       Max VN number:   0.16E+00 at (   4,   1,   6)
       Mesh    3
       Max CFL number:  0.91E+00 at (   2,   4,   5)
       Max divergence:  0.53E-11 at (   5,   3,   3)
       Min divergence: -0.84E-11 at (   5,   1,   1)
       Max VN number:   0.16E+00 at (   1,   6,   6)
       Mesh    4
       Max CFL number:  0.90E+00 at (   3,   4,   4)
       Max divergence:  0.42E-11 at (   5,   3,   4)
       Min divergence: -0.73E-10 at (   5,   6,   6)
       Max VN number:   0.15E+00 at (   3,   1,   6)
 
       Time Step      50   June 26, 2020  16:19:16
       Step Size:    0.285E-01 s, Total Time:       1.51 s
       Pressure Iterations:      1
       Maximum Velocity Error:  0.53E-02 on Mesh   2 at (   4   3   2)
       Maximum Pressure Error:  0.77E-08 on Mesh   4 at (   5   6   6)
       ScaRC: iterations    39, residual  0.31E-08, convergence rate   0.46E+00
       ---------------------------------------------------------------
       Mesh    1
       Max CFL number:  0.88E+00 at (   4,   4,   4)
       Max divergence:  0.18E-10 at (   2,   6,   6)
       Min divergence: -0.71E-11 at (   1,   2,   4)
       Max VN number:   0.15E+00 at (   5,   6,   6)
       Mesh    2
       Max CFL number:  0.98E+00 at (   3,   4,   4)
       Max divergence:  0.68E-11 at (   1,   6,   6)
       Min divergence: -0.22E-11 at (   4,   4,   3)
       Max VN number:   0.17E+00 at (   5,   1,   6)
       Mesh    3
       Max CFL number:  0.97E+00 at (   1,   3,   5)
       Max divergence:  0.51E-11 at (   5,   3,   3)
       Min divergence: -0.91E-11 at (   5,   1,   1)
       Max VN number:   0.16E+00 at (   1,   1,   6)
       Mesh    4
       Max CFL number:  0.95E+00 at (   3,   4,   5)
       Max divergence:  0.47E-11 at (   5,   3,   4)
       Min divergence: -0.75E-10 at (   5,   6,   6)
       Max VN number:   0.16E+00 at (   1,   6,   6)
 
       Time Step      60   June 26, 2020  16:19:16
       Step Size:    0.253E-01 s, Total Time:       1.76 s
       Pressure Iterations:      1
       Maximum Velocity Error:  0.10E-01 on Mesh   2 at (   3   3   2)
       Maximum Pressure Error:  0.79E-08 on Mesh   4 at (   5   6   6)
       ScaRC: iterations    38, residual  0.90E-08, convergence rate   0.46E+00
       ---------------------------------------------------------------
       Mesh    1
       Max CFL number:  0.77E+00 at (   5,   4,   4)
       Max divergence:  0.25E-10 at (   1,   3,   4)
       Min divergence: -0.19E-10 at (   1,   5,   3)
       Max VN number:   0.14E+00 at (   1,   1,   6)
       Mesh    2
       Max CFL number:  0.91E+00 at (   3,   4,   5)
       Max divergence:  0.12E-10 at (   1,   6,   6)
       Min divergence: -0.80E-11 at (   5,   2,   4)
       Max VN number:   0.15E+00 at (   5,   6,   6)
       Mesh    3
       Max CFL number:  0.88E+00 at (   2,   4,   5)
       Max divergence:  0.12E-10 at (   5,   3,   3)
       Min divergence: -0.17E-10 at (   5,   1,   1)
       Max VN number:   0.15E+00 at (   1,   1,   6)
       Mesh    4
       Max CFL number:  0.84E+00 at (   1,   4,   5)
       Max divergence:  0.16E-10 at (   5,   1,   1)
       Min divergence: -0.69E-10 at (   5,   6,   6)
       Max VN number:   0.14E+00 at (   1,   1,   6)
 
       Time Step      70   June 26, 2020  16:19:16
       Step Size:    0.253E-01 s, Total Time:       2.02 s
       Pressure Iterations:      1
       Maximum Velocity Error:  0.47E-02 on Mesh   2 at (   3   6   2)
       Maximum Pressure Error:  0.99E-08 on Mesh   4 at (   5   6   6)
       ScaRC: iterations    39, residual  0.37E-08, convergence rate   0.46E+00
       ---------------------------------------------------------------
       Mesh    1
       Max CFL number:  0.83E+00 at (   5,   4,   5)
       Max divergence:  0.13E-10 at (   2,   6,   6)
       Min divergence: -0.73E-11 at (   5,   1,   1)
       Max VN number:   0.14E+00 at (   2,   6,   6)
       Mesh    2
       Max CFL number:  0.95E+00 at (   4,   4,   5)
       Max divergence:  0.95E-11 at (   1,   6,   6)
       Min divergence: -0.37E-11 at (   5,   4,   3)
       Max VN number:   0.15E+00 at (   3,   6,   6)
       Mesh    3
       Max CFL number:  0.90E+00 at (   1,   3,   4)
       Max divergence:  0.76E-11 at (   5,   3,   3)
       Min divergence: -0.66E-11 at (   5,   1,   1)
       Max VN number:   0.15E+00 at (   2,   6,   6)
       Mesh    4
       Max CFL number:  0.86E+00 at (   4,   3,   5)
       Max divergence:  0.47E-11 at (   3,   5,   2)
       Min divergence: -0.92E-10 at (   5,   6,   6)
       Max VN number:   0.14E+00 at (   2,   1,   6)
 
       Time Step      80   June 26, 2020  16:19:17
       Step Size:    0.253E-01 s, Total Time:       2.27 s
       Pressure Iterations:      1
       Maximum Velocity Error:  0.95E-02 on Mesh   2 at (   4   3   2)
       Maximum Pressure Error:  0.11E-07 on Mesh   4 at (   5   6   6)
       ScaRC: iterations    39, residual  0.36E-08, convergence rate   0.46E+00
       ---------------------------------------------------------------
       Mesh    1
       Max CFL number:  0.82E+00 at (   1,   3,   5)
       Max divergence:  0.16E-10 at (   2,   6,   6)
       Min divergence: -0.75E-11 at (   1,   2,   4)
       Max VN number:   0.14E+00 at (   3,   1,   6)
       Mesh    2
       Max CFL number:  0.93E+00 at (   2,   4,   5)
       Max divergence:  0.93E-11 at (   1,   6,   6)
       Min divergence: -0.37E-11 at (   1,   6,   1)
       Max VN number:   0.15E+00 at (   4,   6,   6)
       Mesh    3
       Max CFL number:  0.95E+00 at (   1,   4,   5)
       Max divergence:  0.59E-11 at (   5,   3,   3)
       Min divergence: -0.69E-11 at (   5,   2,   6)
       Max VN number:   0.15E+00 at (   4,   1,   6)
       Mesh    4
       Max CFL number:  0.84E+00 at (   1,   4,   5)
       Max divergence:  0.89E-11 at (   5,   3,   4)
       Min divergence: -0.97E-10 at (   5,   6,   6)
       Max VN number:   0.14E+00 at (   1,   6,   6)
 
       Time Step      90   June 26, 2020  16:19:17
       Step Size:    0.253E-01 s, Total Time:       2.52 s
       Pressure Iterations:      1
       Maximum Velocity Error:  0.80E-02 on Mesh   2 at (   3   4   2)
       Maximum Pressure Error:  0.90E-08 on Mesh   4 at (   5   6   6)
       ScaRC: iterations    39, residual  0.32E-08, convergence rate   0.46E+00
       ---------------------------------------------------------------
       Mesh    1
       Max CFL number:  0.86E+00 at (   1,   4,   5)
       Max divergence:  0.20E-10 at (   2,   6,   6)
       Min divergence: -0.80E-11 at (   2,   5,   6)
       Max VN number:   0.14E+00 at (   1,   1,   6)
       Mesh    2
       Max CFL number:  0.94E+00 at (   5,   4,   5)
       Max divergence:  0.99E-11 at (   1,   6,   6)
       Min divergence: -0.36E-11 at (   5,   2,   4)
       Max VN number:   0.15E+00 at (   5,   6,   6)
       Mesh    3
       Max CFL number:  0.93E+00 at (   3,   4,   5)
       Max divergence:  0.73E-11 at (   1,   6,   6)
       Min divergence: -0.70E-11 at (   5,   1,   1)
       Max VN number:   0.15E+00 at (   1,   1,   6)
       Mesh    4
       Max CFL number:  0.89E+00 at (   2,   4,   5)
       Max divergence:  0.53E-11 at (   5,   4,   3)
       Min divergence: -0.75E-10 at (   5,   6,   6)
       Max VN number:   0.15E+00 at (   1,   6,   6)
 
       Time Step     100   June 26, 2020  16:19:17
       Step Size:    0.253E-01 s, Total Time:       2.77 s
       Pressure Iterations:      1
       Maximum Velocity Error:  0.78E-02 on Mesh   2 at (   3   3   2)
       Maximum Pressure Error:  0.78E-08 on Mesh   4 at (   5   6   6)
       ScaRC: iterations    39, residual  0.27E-08, convergence rate   0.46E+00
       ---------------------------------------------------------------
       Mesh    1
       Max CFL number:  0.86E+00 at (   1,   4,   4)
       Max divergence:  0.15E-10 at (   2,   6,   6)
       Min divergence: -0.60E-11 at (   2,   5,   6)
       Max VN number:   0.14E+00 at (   1,   6,   6)
       Mesh    2
       Max CFL number:  0.94E+00 at (   5,   4,   5)
       Max divergence:  0.11E-10 at (   1,   6,   6)
       Min divergence: -0.38E-11 at (   5,   4,   4)
       Max VN number:   0.15E+00 at (   4,   1,   6)
       Mesh    3
       Max CFL number:  0.97E+00 at (   5,   4,   5)
       Max divergence:  0.70E-11 at (   1,   6,   6)
       Min divergence: -0.76E-11 at (   5,   1,   1)
       Max VN number:   0.15E+00 at (   3,   6,   6)
       Mesh    4
       Max CFL number:  0.97E+00 at (   1,   4,   5)
       Max divergence:  0.34E-11 at (   3,   6,   5)
       Min divergence: -0.70E-10 at (   5,   6,   6)
       Max VN number:   0.15E+00 at (   1,   6,   6)
 
       Time Step     200   June 26, 2020  16:19:18
       Step Size:    0.198E-01 s, Total Time:       5.05 s
       Pressure Iterations:      1
       Maximum Velocity Error:  0.14E-01 on Mesh   2 at (   4   4   2)
       Maximum Pressure Error:  0.49E-08 on Mesh   4 at (   5   6   6)
       ScaRC: iterations    39, residual  0.25E-08, convergence rate   0.46E+00
       ---------------------------------------------------------------
       Mesh    1
       Max CFL number:  0.75E+00 at (   1,   3,   4)
       Max divergence:  0.71E-11 at (   2,   6,   6)
       Min divergence: -0.36E-11 at (   1,   4,   2)
       Max VN number:   0.10E+00 at (   1,   1,   6)
       Mesh    2
       Max CFL number:  0.80E+00 at (   4,   3,   4)
       Max divergence:  0.46E-11 at (   1,   6,   6)
       Min divergence: -0.52E-11 at (   5,   3,   2)
       Max VN number:   0.12E+00 at (   5,   1,   6)
       Mesh    3
       Max CFL number:  0.88E+00 at (   2,   3,   4)
       Max divergence:  0.47E-11 at (   1,   6,   6)
       Min divergence: -0.39E-11 at (   1,   3,   2)
       Max VN number:   0.12E+00 at (   1,   1,   6)
       Mesh    4
       Max CFL number:  0.84E+00 at (   1,   3,   4)
       Max divergence:  0.39E-11 at (   5,   3,   4)
       Min divergence: -0.34E-10 at (   5,   6,   6)
       Max VN number:   0.11E+00 at (   1,   1,   6)
 
       Time Step     300   June 26, 2020  16:19:19
       Step Size:    0.217E-01 s, Total Time:       7.13 s
       Pressure Iterations:      1
       Maximum Velocity Error:  0.29E-02 on Mesh   2 at (   4   3   2)
       Maximum Pressure Error:  0.83E-08 on Mesh   4 at (   5   6   6)
       ScaRC: iterations    39, residual  0.31E-08, convergence rate   0.46E+00
       ---------------------------------------------------------------
       Mesh    1
       Max CFL number:  0.80E+00 at (   1,   4,   4)
       Max divergence:  0.11E-10 at (   2,   6,   6)
       Min divergence: -0.48E-11 at (   1,   6,   5)
       Max VN number:   0.11E+00 at (   1,   1,   6)
       Mesh    2
       Max CFL number:  0.87E+00 at (   5,   3,   4)
       Max divergence:  0.80E-11 at (   1,   6,   6)
       Min divergence: -0.34E-11 at (   5,   3,   4)
       Max VN number:   0.12E+00 at (   5,   1,   6)
       Mesh    3
       Max CFL number:  0.92E+00 at (   3,   3,   4)
       Max divergence:  0.60E-11 at (   1,   1,   1)
       Min divergence: -0.58E-11 at (   5,   1,   1)
       Max VN number:   0.12E+00 at (   2,   1,   6)
       Mesh    4
       Max CFL number:  0.89E+00 at (   2,   3,   4)
       Max divergence:  0.30E-11 at (   5,   3,   4)
       Min divergence: -0.65E-10 at (   5,   6,   6)
       Max VN number:   0.12E+00 at (   1,   1,   6)
 
       Time Step     400   June 26, 2020  16:19:20
       Step Size:    0.217E-01 s, Total Time:       9.30 s
       Pressure Iterations:      1
       Maximum Velocity Error:  0.53E-02 on Mesh   2 at (   4   4   2)
       Maximum Pressure Error:  0.77E-08 on Mesh   4 at (   5   6   6)
       ScaRC: iterations    39, residual  0.29E-08, convergence rate   0.46E+00
       ---------------------------------------------------------------
       Mesh    1
       Max CFL number:  0.82E+00 at (   4,   4,   4)
       Max divergence:  0.13E-10 at (   2,   6,   6)
       Min divergence: -0.48E-11 at (   1,   6,   5)
       Max VN number:   0.12E+00 at (   1,   6,   6)
       Mesh    2
       Max CFL number:  0.90E+00 at (   5,   3,   5)
       Max divergence:  0.80E-11 at (   1,   6,   6)
       Min divergence: -0.46E-11 at (   5,   3,   4)
       Max VN number:   0.12E+00 at (   5,   1,   6)
       Mesh    3
       Max CFL number:  0.90E+00 at (   4,   3,   5)
       Max divergence:  0.58E-11 at (   1,   1,   1)
       Min divergence: -0.46E-11 at (   5,   1,   1)
       Max VN number:   0.13E+00 at (   2,   1,   6)
       Mesh    4
       Max CFL number:  0.85E+00 at (   1,   4,   4)
       Max divergence:  0.28E-11 at (   3,   5,   4)
       Min divergence: -0.56E-10 at (   5,   6,   6)
       Max VN number:   0.12E+00 at (   1,   1,   6)
 
       Time Step     500   June 26, 2020  16:19:21
       Step Size:    0.217E-01 s, Total Time:      11.48 s
       Pressure Iterations:      1
       Maximum Velocity Error:  0.11E-01 on Mesh   2 at (   4   3   2)
       Maximum Pressure Error:  0.80E-08 on Mesh   4 at (   5   6   6)
       ScaRC: iterations    39, residual  0.33E-08, convergence rate   0.46E+00
       ---------------------------------------------------------------
       Mesh    1
       Max CFL number:  0.81E+00 at (   1,   4,   4)
       Max divergence:  0.13E-10 at (   2,   6,   6)
       Min divergence: -0.56E-11 at (   1,   6,   5)
       Max VN number:   0.11E+00 at (   1,   1,   6)
       Mesh    2
       Max CFL number:  0.91E+00 at (   5,   3,   4)
       Max divergence:  0.76E-11 at (   1,   6,   6)
       Min divergence: -0.47E-11 at (   5,   3,   2)
       Max VN number:   0.15E+00 at (   2,   5,   2)
       Mesh    3
       Max CFL number:  0.96E+00 at (   5,   3,   5)
       Max divergence:  0.63E-11 at (   1,   1,   1)
       Min divergence: -0.33E-11 at (   1,   4,   1)
       Max VN number:   0.12E+00 at (   4,   1,   6)
       Mesh    4
       Max CFL number:  0.96E+00 at (   1,   3,   5)
       Max divergence:  0.37E-11 at (   5,   3,   4)
       Min divergence: -0.61E-10 at (   5,   6,   6)
       Max VN number:   0.12E+00 at (   1,   1,   6)
 
       Time Step     600   June 26, 2020  16:19:22
       Step Size:    0.211E-01 s, Total Time:      13.51 s
       Pressure Iterations:      1
       Maximum Velocity Error:  0.59E-02 on Mesh   2 at (   4   5   2)
       Maximum Pressure Error:  0.59E-08 on Mesh   4 at (   5   6   6)
       ScaRC: iterations    39, residual  0.29E-08, convergence rate   0.46E+00
       ---------------------------------------------------------------
       Mesh    1
       Max CFL number:  0.79E+00 at (   4,   4,   3)
       Max divergence:  0.11E-10 at (   2,   6,   6)
       Min divergence: -0.57E-11 at (   1,   2,   4)
       Max VN number:   0.11E+00 at (   2,   6,   3)
       Mesh    2
       Max CFL number:  0.85E+00 at (   3,   4,   4)
       Max divergence:  0.60E-11 at (   1,   6,   6)
       Min divergence: -0.42E-11 at (   5,   3,   2)
       Max VN number:   0.14E+00 at (   2,   5,   2)
       Mesh    3
       Max CFL number:  0.86E+00 at (   5,   4,   4)
       Max divergence:  0.69E-11 at (   1,   1,   1)
       Min divergence: -0.32E-11 at (   5,   6,   4)
       Max VN number:   0.12E+00 at (   5,   6,   6)
       Mesh    4
       Max CFL number:  0.86E+00 at (   1,   4,   4)
       Max divergence:  0.35E-11 at (   1,   1,   1)
       Min divergence: -0.44E-10 at (   5,   6,   6)
       Max VN number:   0.12E+00 at (   3,   6,   3)
 
       Time Step     700   June 26, 2020  16:19:25
       Step Size:    0.211E-01 s, Total Time:      15.62 s
       Pressure Iterations:      1
       Maximum Velocity Error:  0.16E-01 on Mesh   2 at (   4   3   2)
       Maximum Pressure Error:  0.95E-08 on Mesh   4 at (   5   6   6)
       ScaRC: iterations    39, residual  0.36E-08, convergence rate   0.46E+00
       ---------------------------------------------------------------
       Mesh    1
       Max CFL number:  0.78E+00 at (   1,   3,   4)
       Max divergence:  0.14E-10 at (   2,   6,   6)
       Min divergence: -0.61E-11 at (   1,   2,   4)
       Max VN number:   0.12E+00 at (   5,   6,   3)
       Mesh    2
       Max CFL number:  0.83E+00 at (   2,   4,   3)
       Max divergence:  0.82E-11 at (   1,   6,   6)
       Min divergence: -0.54E-11 at (   5,   3,   2)
       Max VN number:   0.20E+00 at (   2,   5,   2)
       Mesh    3
       Max CFL number:  0.86E+00 at (   2,   4,   4)
       Max divergence:  0.75E-11 at (   1,   1,   1)
       Min divergence: -0.58E-11 at (   5,   1,   1)
       Max VN number:   0.12E+00 at (   1,   6,   6)
       Mesh    4
       Max CFL number:  0.84E+00 at (   1,   4,   4)
       Max divergence:  0.38E-11 at (   3,   4,   6)
       Min divergence: -0.66E-10 at (   5,   6,   6)
       Max VN number:   0.12E+00 at (   2,   6,   3)
 
       Time Step     800   June 26, 2020  16:19:28
       Step Size:    0.211E-01 s, Total Time:      17.73 s
       Pressure Iterations:      1
       Maximum Velocity Error:  0.16E-01 on Mesh   2 at (   4   3   2)
       Maximum Pressure Error:  0.31E-08 on Mesh   4 at (   5   6   6)
       ScaRC: iterations    38, residual  0.78E-08, convergence rate   0.47E+00
       ---------------------------------------------------------------
       Mesh    1
       Max CFL number:  0.81E+00 at (   5,   2,   3)
       Max divergence:  0.97E-11 at (   1,   2,   2)
       Min divergence: -0.10E-10 at (   1,   2,   3)
       Max VN number:   0.13E+00 at (   5,   1,   3)
       Mesh    2
       Max CFL number:  0.86E+00 at (   2,   4,   3)
       Max divergence:  0.14E-10 at (   5,   1,   1)
       Min divergence: -0.88E-11 at (   5,   1,   6)
       Max VN number:   0.22E+00 at (   2,   3,   2)
       Mesh    3
       Max CFL number:  0.83E+00 at (   4,   3,   4)
       Max divergence:  0.59E-11 at (   5,   1,   1)
       Min divergence: -0.41E-11 at (   1,   4,   1)
       Max VN number:   0.13E+00 at (   1,   6,   6)
       Mesh    4
       Max CFL number:  0.81E+00 at (   3,   3,   4)
       Max divergence:  0.14E-10 at (   5,   1,   1)
       Min divergence: -0.20E-10 at (   5,   6,   6)
       Max VN number:   0.11E+00 at (   1,   6,   6)
 
       Time Step     900   June 26, 2020  16:19:30
       Step Size:    0.211E-01 s, Total Time:      19.84 s
       Pressure Iterations:      1
       Maximum Velocity Error:  0.23E-01 on Mesh   2 at (   3   2   2)
       Maximum Pressure Error:  0.48E-08 on Mesh   4 at (   5   6   6)
       ScaRC: iterations    39, residual  0.26E-08, convergence rate   0.46E+00
       ---------------------------------------------------------------
       Mesh    1
       Max CFL number:  0.76E+00 at (   3,   4,   3)
       Max divergence:  0.71E-11 at (   1,   6,   6)
       Min divergence: -0.52E-11 at (   1,   2,   4)
       Max VN number:   0.13E+00 at (   4,   6,   3)
       Mesh    2
       Max CFL number:  0.83E+00 at (   2,   4,   3)
       Max divergence:  0.54E-11 at (   1,   6,   6)
       Min divergence: -0.36E-11 at (   5,   3,   2)
       Max VN number:   0.20E+00 at (   2,   4,   2)
       Mesh    3
       Max CFL number:  0.85E+00 at (   4,   3,   4)
       Max divergence:  0.49E-11 at (   1,   1,   1)
       Min divergence: -0.27E-11 at (   5,   1,   1)
       Max VN number:   0.13E+00 at (   3,   6,   6)
       Mesh    4
       Max CFL number:  0.80E+00 at (   1,   3,   4)
       Max divergence:  0.32E-11 at (   5,   3,   4)
       Min divergence: -0.36E-10 at (   5,   6,   6)
       Max VN number:   0.12E+00 at (   1,   6,   6)
 
       Time Step    1000   June 26, 2020  16:19:33
       Step Size:    0.211E-01 s, Total Time:      21.96 s
       Pressure Iterations:      1
       Maximum Velocity Error:  0.62E-02 on Mesh   2 at (   3   6   2)
       Maximum Pressure Error:  0.35E-08 on Mesh   4 at (   5   6   6)
       ScaRC: iterations    38, residual  0.82E-08, convergence rate   0.47E+00
       ---------------------------------------------------------------
       Mesh    1
       Max CFL number:  0.73E+00 at (   1,   3,   4)
       Max divergence:  0.99E-11 at (   1,   3,   4)
       Min divergence: -0.10E-10 at (   1,   4,   4)
       Max VN number:   0.12E+00 at (   5,   6,   3)
       Mesh    2
       Max CFL number:  0.82E+00 at (   4,   3,   4)
       Max divergence:  0.15E-10 at (   5,   1,   1)
       Min divergence: -0.96E-11 at (   5,   1,   6)
       Max VN number:   0.17E+00 at (   2,   3,   2)
       Mesh    3
       Max CFL number:  0.83E+00 at (   3,   3,   4)
       Max divergence:  0.66E-11 at (   5,   1,   1)
       Min divergence: -0.51E-11 at (   5,   2,   3)
       Max VN number:   0.12E+00 at (   1,   6,   6)
       Mesh    4
       Max CFL number:  0.80E+00 at (   1,   3,   4)
       Max divergence:  0.18E-10 at (   5,   1,   1)
       Min divergence: -0.27E-10 at (   5,   6,   6)
       Max VN number:   0.12E+00 at (   1,   1,   6)
 
       Time Step    1100   June 26, 2020  16:19:36
       Step Size:    0.211E-01 s, Total Time:      24.07 s
       Pressure Iterations:      1
       Maximum Velocity Error:  0.55E-02 on Mesh   2 at (   4   3   2)
       Maximum Pressure Error:  0.89E-08 on Mesh   4 at (   5   6   6)
       ScaRC: iterations    39, residual  0.33E-08, convergence rate   0.46E+00
       ---------------------------------------------------------------
       Mesh    1
       Max CFL number:  0.76E+00 at (   1,   3,   4)
       Max divergence:  0.87E-11 at (   2,   6,   6)
       Min divergence: -0.54E-11 at (   1,   1,   4)
       Max VN number:   0.12E+00 at (   5,   6,   3)
       Mesh    2
       Max CFL number:  0.81E+00 at (   5,   4,   4)
       Max divergence:  0.65E-11 at (   1,   6,   6)
       Min divergence: -0.38E-11 at (   5,   3,   4)
       Max VN number:   0.15E+00 at (   2,   5,   2)
       Mesh    3
       Max CFL number:  0.83E+00 at (   1,   4,   4)
       Max divergence:  0.65E-11 at (   1,   1,   1)
       Min divergence: -0.62E-11 at (   5,   1,   1)
       Max VN number:   0.12E+00 at (   2,   6,   6)
       Mesh    4
       Max CFL number:  0.81E+00 at (   1,   4,   4)
       Max divergence:  0.29E-11 at (   5,   4,   3)
       Min divergence: -0.68E-10 at (   5,   6,   6)
       Max VN number:   0.12E+00 at (   1,   6,   6)
 
       Time Step    1200   June 26, 2020  16:19:39
       Step Size:    0.211E-01 s, Total Time:      26.18 s
       Pressure Iterations:      1
       Maximum Velocity Error:  0.13E-01 on Mesh   2 at (   4   4   2)
       Maximum Pressure Error:  0.75E-08 on Mesh   4 at (   5   6   6)
       ScaRC: iterations    39, residual  0.33E-08, convergence rate   0.46E+00
       ---------------------------------------------------------------
       Mesh    1
       Max CFL number:  0.78E+00 at (   1,   4,   4)
       Max divergence:  0.98E-11 at (   2,   6,   6)
       Min divergence: -0.54E-11 at (   1,   2,   4)
       Max VN number:   0.13E+00 at (   5,   1,   3)
       Mesh    2
       Max CFL number:  0.86E+00 at (   4,   3,   4)
       Max divergence:  0.77E-11 at (   1,   6,   6)
       Min divergence: -0.53E-11 at (   5,   3,   2)
       Max VN number:   0.20E+00 at (   2,   5,   2)
       Mesh    3
       Max CFL number:  0.85E+00 at (   3,   4,   4)
       Max divergence:  0.65E-11 at (   1,   1,   1)
       Min divergence: -0.54E-11 at (   5,   1,   1)
       Max VN number:   0.12E+00 at (   1,   6,   6)
       Mesh    4
       Max CFL number:  0.83E+00 at (   1,   3,   4)
       Max divergence:  0.39E-11 at (   5,   4,   3)
       Min divergence: -0.55E-10 at (   5,   6,   6)
       Max VN number:   0.11E+00 at (   1,   6,   6)
 
       Time Step    1300   June 26, 2020  16:19:40
       Step Size:    0.211E-01 s, Total Time:      28.29 s
       Pressure Iterations:      1
       Maximum Velocity Error:  0.70E-02 on Mesh   2 at (   4   3   2)
       Maximum Pressure Error:  0.65E-08 on Mesh   4 at (   5   6   6)
       ScaRC: iterations    39, residual  0.31E-08, convergence rate   0.46E+00
       ---------------------------------------------------------------
       Mesh    1
       Max CFL number:  0.77E+00 at (   2,   3,   4)
       Max divergence:  0.48E-11 at (   1,   2,   2)
       Min divergence: -0.49E-11 at (   1,   2,   4)
       Max VN number:   0.12E+00 at (   1,   1,   3)
       Mesh    2
       Max CFL number:  0.83E+00 at (   5,   3,   4)
       Max divergence:  0.43E-11 at (   5,   6,   1)
       Min divergence: -0.92E-11 at (   5,   3,   2)
       Max VN number:   0.20E+00 at (   2,   5,   2)
       Mesh    3
       Max CFL number:  0.85E+00 at (   1,   3,   4)
       Max divergence:  0.65E-11 at (   1,   1,   1)
       Min divergence: -0.51E-11 at (   1,   3,   2)
       Max VN number:   0.12E+00 at (   1,   6,   6)
       Mesh    4
       Max CFL number:  0.82E+00 at (   1,   3,   4)
       Max divergence:  0.47E-11 at (   5,   4,   3)
       Min divergence: -0.53E-10 at (   5,   6,   6)
       Max VN number:   0.11E+00 at (   5,   1,   3)
 
       Time Step    1400   June 26, 2020  16:19:43
       Step Size:    0.211E-01 s, Total Time:      30.40 s
       Pressure Iterations:      2
       Maximum Velocity Error:  0.54E-02 on Mesh   2 at (   4   2   2)
       Maximum Pressure Error:  0.49E-08 on Mesh   4 at (   5   6   6)
       ScaRC: iterations    39, residual  0.28E-08, convergence rate   0.46E+00
       ---------------------------------------------------------------
       Mesh    1
       Max CFL number:  0.80E+00 at (   2,   4,   3)
       Max divergence:  0.58E-11 at (   2,   6,   6)
       Min divergence: -0.55E-11 at (   1,   2,   4)
       Max VN number:   0.15E+00 at (   5,   6,   3)
       Mesh    2
       Max CFL number:  0.88E+00 at (   2,   4,   3)
       Max divergence:  0.38E-11 at (   1,   6,   6)
       Min divergence: -0.41E-11 at (   5,   3,   2)
       Max VN number:   0.22E+00 at (   2,   4,   2)
       Mesh    3
       Max CFL number:  0.88E+00 at (   1,   3,   4)
       Max divergence:  0.48E-11 at (   1,   1,   1)
       Min divergence: -0.32E-11 at (   1,   2,   6)
       Max VN number:   0.13E+00 at (   3,   6,   6)
       Mesh    4
       Max CFL number:  0.86E+00 at (   1,   4,   3)
       Max divergence:  0.47E-11 at (   5,   4,   3)
       Min divergence: -0.35E-10 at (   5,   6,   6)
       Max VN number:   0.12E+00 at (   1,   6,   6)
 
       Time Step    1500   June 26, 2020  16:19:45
       Step Size:    0.232E-01 s, Total Time:      32.56 s
       Pressure Iterations:      1
       Maximum Velocity Error:  0.15E-01 on Mesh   2 at (   3   3   2)
       Maximum Pressure Error:  0.70E-08 on Mesh   4 at (   5   6   6)
       ScaRC: iterations    39, residual  0.30E-08, convergence rate   0.46E+00
       ---------------------------------------------------------------
       Mesh    1
       Max CFL number:  0.82E+00 at (   1,   2,   4)
       Max divergence:  0.87E-11 at (   2,   6,   6)
       Min divergence: -0.54E-11 at (   1,   2,   4)
       Max VN number:   0.14E+00 at (   3,   6,   3)
       Mesh    2
       Max CFL number:  0.89E+00 at (   2,   4,   3)
       Max divergence:  0.74E-11 at (   1,   6,   6)
       Min divergence: -0.36E-11 at (   5,   4,   4)
       Max VN number:   0.25E+00 at (   2,   5,   2)
       Mesh    3
       Max CFL number:  0.89E+00 at (   2,   3,   4)
       Max divergence:  0.60E-11 at (   1,   1,   1)
       Min divergence: -0.62E-11 at (   5,   1,   1)
       Max VN number:   0.14E+00 at (   1,   1,   6)
       Mesh    4
       Max CFL number:  0.86E+00 at (   1,   2,   4)
       Max divergence:  0.42E-11 at (   5,   4,   3)
       Min divergence: -0.58E-10 at (   5,   6,   6)
       Max VN number:   0.13E+00 at (   1,   1,   6)
 
       Time Step    1600   June 26, 2020  16:19:47
       Step Size:    0.209E-01 s, Total Time:      34.86 s
       Pressure Iterations:      1
       Maximum Velocity Error:  0.47E-02 on Mesh   2 at (   4   4   2)
       Maximum Pressure Error:  0.14E-08 on Mesh   4 at (   5   6   6)
       ScaRC: iterations    38, residual  0.50E-08, convergence rate   0.47E+00
       ---------------------------------------------------------------
       Mesh    1
       Max CFL number:  0.80E+00 at (   2,   4,   4)
       Max divergence:  0.83E-11 at (   1,   3,   4)
       Min divergence: -0.55E-11 at (   1,   4,   2)
       Max VN number:   0.99E-01 at (   1,   6,   6)
       Mesh    2
       Max CFL number:  0.84E+00 at (   5,   4,   4)
       Max divergence:  0.11E-10 at (   5,   1,   1)
       Min divergence: -0.75E-11 at (   5,   3,   2)
       Max VN number:   0.17E+00 at (   2,   3,   2)
       Mesh    3
       Max CFL number:  0.85E+00 at (   4,   4,   4)
       Max divergence:  0.55E-11 at (   5,   6,   1)
       Min divergence: -0.43E-11 at (   1,   4,   2)
       Max VN number:   0.13E+00 at (   5,   1,   3)
       Mesh    4
       Max CFL number:  0.85E+00 at (   2,   4,   4)
       Max divergence:  0.63E-11 at (   5,   4,   4)
       Min divergence: -0.11E-10 at (   5,   6,   6)
       Max VN number:   0.12E+00 at (   1,   6,   6)
 
       Time Step    1700   June 26, 2020  16:19:48
       Step Size:    0.209E-01 s, Total Time:      36.95 s
       Pressure Iterations:      1
       Maximum Velocity Error:  0.71E-02 on Mesh   2 at (   4   4   2)
       Maximum Pressure Error:  0.12E-08 on Mesh   4 at (   5   6   6)
       ScaRC: iterations    38, residual  0.39E-08, convergence rate   0.47E+00
       ---------------------------------------------------------------
       Mesh    1
       Max CFL number:  0.75E+00 at (   1,   4,   3)
       Max divergence:  0.85E-11 at (   2,   6,   6)
       Min divergence: -0.51E-11 at (   1,   3,   2)
       Max VN number:   0.12E+00 at (   5,   6,   3)
       Mesh    2
       Max CFL number:  0.79E+00 at (   2,   4,   3)
       Max divergence:  0.89E-11 at (   5,   1,   1)
       Min divergence: -0.56E-11 at (   5,   5,   1)
       Max VN number:   0.17E+00 at (   2,   4,   2)
       Mesh    3
       Max CFL number:  0.81E+00 at (   1,   3,   4)
       Max divergence:  0.32E-11 at (   5,   1,   2)
       Min divergence: -0.35E-11 at (   5,   1,   3)
       Max VN number:   0.12E+00 at (   1,   6,   6)
       Mesh    4
       Max CFL number:  0.80E+00 at (   1,   3,   4)
       Max divergence:  0.62E-11 at (   5,   3,   2)
       Min divergence: -0.59E-11 at (   5,   6,   6)
       Max VN number:   0.12E+00 at (   1,   6,   6)
 
       Time Step    1800   June 26, 2020  16:19:49
       Step Size:    0.230E-01 s, Total Time:      39.19 s
       Pressure Iterations:      1
       Maximum Velocity Error:  0.14E-01 on Mesh   2 at (   3   1   2)
       Maximum Pressure Error:  0.85E-08 on Mesh   4 at (   5   6   6)
       ScaRC: iterations    39, residual  0.32E-08, convergence rate   0.46E+00
       ---------------------------------------------------------------
       Mesh    1
       Max CFL number:  0.82E+00 at (   3,   3,   4)
       Max divergence:  0.13E-10 at (   2,   6,   6)
       Min divergence: -0.62E-11 at (   1,   2,   4)
       Max VN number:   0.13E+00 at (   4,   6,   3)
       Mesh    2
       Max CFL number:  0.87E+00 at (   5,   4,   4)
       Max divergence:  0.80E-11 at (   1,   6,   6)
       Min divergence: -0.40E-11 at (   5,   3,   4)
       Max VN number:   0.15E+00 at (   1,   1,   3)
       Mesh    3
       Max CFL number:  0.92E+00 at (   5,   3,   4)
       Max divergence:  0.67E-11 at (   1,   1,   1)
       Min divergence: -0.61E-11 at (   5,   1,   1)
       Max VN number:   0.13E+00 at (   3,   6,   6)
       Mesh    4
       Max CFL number:  0.92E+00 at (   1,   3,   4)
       Max divergence:  0.27E-11 at (   5,   3,   4)
       Min divergence: -0.69E-10 at (   5,   6,   6)
       Max VN number:   0.13E+00 at (   1,   6,   6)
 
       Time Step    1900   June 26, 2020  16:19:50
       Step Size:    0.206E-01 s, Total Time:      41.42 s
       Pressure Iterations:      1
       Maximum Velocity Error:  0.18E-01 on Mesh   2 at (   3   2   2)
       Maximum Pressure Error:  0.70E-08 on Mesh   4 at (   5   6   6)
       ScaRC: iterations    39, residual  0.28E-08, convergence rate   0.46E+00
       ---------------------------------------------------------------
       Mesh    1
       Max CFL number:  0.77E+00 at (   1,   4,   4)
       Max divergence:  0.93E-11 at (   2,   6,   6)
       Min divergence: -0.48E-11 at (   1,   4,   2)
       Max VN number:   0.11E+00 at (   1,   6,   6)
       Mesh    2
       Max CFL number:  0.80E+00 at (   4,   4,   4)
       Max divergence:  0.52E-11 at (   1,   6,   6)
       Min divergence: -0.50E-11 at (   5,   3,   2)
       Max VN number:   0.13E+00 at (   2,   3,   2)
       Mesh    3
       Max CFL number:  0.86E+00 at (   1,   4,   4)
       Max divergence:  0.56E-11 at (   1,   1,   1)
       Min divergence: -0.37E-11 at (   5,   1,   1)
       Max VN number:   0.12E+00 at (   3,   1,   6)
       Mesh    4
       Max CFL number:  0.85E+00 at (   1,   4,   4)
       Max divergence:  0.28E-11 at (   3,   4,   3)
       Min divergence: -0.51E-10 at (   5,   6,   6)
       Max VN number:   0.12E+00 at (   1,   1,   6)
 
       Time Step    2000   June 26, 2020  16:19:51
       Step Size:    0.206E-01 s, Total Time:      43.48 s
       Pressure Iterations:      1
       Maximum Velocity Error:  0.18E-01 on Mesh   2 at (   3   5   2)
       Maximum Pressure Error:  0.52E-08 on Mesh   4 at (   5   6   6)
       ScaRC: iterations    39, residual  0.30E-08, convergence rate   0.46E+00
       ---------------------------------------------------------------
       Mesh    1
       Max CFL number:  0.78E+00 at (   1,   3,   4)
       Max divergence:  0.77E-11 at (   2,   6,   6)
       Min divergence: -0.57E-11 at (   1,   2,   4)
       Max VN number:   0.11E+00 at (   5,   6,   3)
       Mesh    2
       Max CFL number:  0.85E+00 at (   5,   4,   4)
       Max divergence:  0.48E-11 at (   1,   6,   6)
       Min divergence: -0.47E-11 at (   5,   3,   2)
       Max VN number:   0.15E+00 at (   2,   5,   2)
       Mesh    3
       Max CFL number:  0.85E+00 at (   3,   3,   4)
       Max divergence:  0.52E-11 at (   1,   1,   1)
       Min divergence: -0.31E-11 at (   1,   1,   3)
       Max VN number:   0.12E+00 at (   3,   6,   6)
       Mesh    4
       Max CFL number:  0.85E+00 at (   2,   3,   4)
       Max divergence:  0.42E-11 at (   5,   3,   4)
       Min divergence: -0.35E-10 at (   5,   6,   6)
       Max VN number:   0.11E+00 at (   1,   6,   6)
 
       Time Step    2100   June 26, 2020  16:19:52
       Step Size:    0.227E-01 s, Total Time:      45.56 s
       Pressure Iterations:      2
       Maximum Velocity Error:  0.65E-02 on Mesh   2 at (   4   2   2)
       Maximum Pressure Error:  0.68E-08 on Mesh   4 at (   5   6   6)
       ScaRC: iterations    39, residual  0.29E-08, convergence rate   0.46E+00
       ---------------------------------------------------------------
       Mesh    1
       Max CFL number:  0.80E+00 at (   4,   4,   4)
       Max divergence:  0.89E-11 at (   2,   6,   6)
       Min divergence: -0.53E-11 at (   1,   4,   2)
       Max VN number:   0.11E+00 at (   1,   6,   6)
       Mesh    2
       Max CFL number:  0.89E+00 at (   5,   4,   4)
       Max divergence:  0.50E-11 at (   1,   6,   6)
       Min divergence: -0.76E-11 at (   5,   2,   2)
       Max VN number:   0.17E+00 at (   2,   4,   2)
       Mesh    3
       Max CFL number:  0.90E+00 at (   1,   3,   4)
       Max divergence:  0.60E-11 at (   1,   1,   1)
       Min divergence: -0.34E-11 at (   1,   1,   3)
       Max VN number:   0.13E+00 at (   3,   1,   6)
       Mesh    4
       Max CFL number:  0.88E+00 at (   1,   4,   4)
       Max divergence:  0.39E-11 at (   5,   4,   3)
       Min divergence: -0.52E-10 at (   5,   6,   6)
       Max VN number:   0.13E+00 at (   1,   1,   6)
 
       Time Step    2200   June 26, 2020  16:19:53
       Step Size:    0.227E-01 s, Total Time:      47.83 s
       Pressure Iterations:      1
       Maximum Velocity Error:  0.48E-02 on Mesh   2 at (   4   4   2)
       Maximum Pressure Error:  0.76E-08 on Mesh   4 at (   5   6   6)
       ScaRC: iterations    39, residual  0.30E-08, convergence rate   0.46E+00
       ---------------------------------------------------------------
       Mesh    1
       Max CFL number:  0.83E+00 at (   2,   3,   4)
       Max divergence:  0.12E-10 at (   2,   6,   6)
       Min divergence: -0.53E-11 at (   1,   2,   4)
       Max VN number:   0.12E+00 at (   4,   6,   3)
       Mesh    2
       Max CFL number:  0.88E+00 at (   2,   3,   4)
       Max divergence:  0.81E-11 at (   1,   6,   6)
       Min divergence: -0.39E-11 at (   5,   3,   3)
       Max VN number:   0.15E+00 at (   2,   2,   2)
       Mesh    3
       Max CFL number:  0.94E+00 at (   3,   4,   4)
       Max divergence:  0.61E-11 at (   1,   1,   1)
       Min divergence: -0.50E-11 at (   5,   1,   1)
       Max VN number:   0.13E+00 at (   4,   6,   6)
       Mesh    4
       Max CFL number:  0.90E+00 at (   2,   4,   4)
       Max divergence:  0.31E-11 at (   3,   5,   6)
       Min divergence: -0.61E-10 at (   5,   6,   6)
       Max VN number:   0.13E+00 at (   1,   6,   6)
 
       Time Step    2300   June 26, 2020  16:19:54
       Step Size:    0.227E-01 s, Total Time:      50.09 s
       Pressure Iterations:      1
       Maximum Velocity Error:  0.87E-02 on Mesh   2 at (   4   3   2)
       Maximum Pressure Error:  0.48E-08 on Mesh   4 at (   5   6   6)
       ScaRC: iterations    39, residual  0.26E-08, convergence rate   0.46E+00
       ---------------------------------------------------------------
       Mesh    1
       Max CFL number:  0.87E+00 at (   4,   3,   4)
       Max divergence:  0.82E-11 at (   2,   6,   6)
       Min divergence: -0.42E-11 at (   1,   2,   4)
       Max VN number:   0.13E+00 at (   5,   1,   3)
       Mesh    2
       Max CFL number:  0.89E+00 at (   2,   3,   4)
       Max divergence:  0.77E-11 at (   1,   6,   6)
       Min divergence: -0.21E-11 at (   5,   3,   1)
       Max VN number:   0.15E+00 at (   2,   2,   2)
       Mesh    3
       Max CFL number:  0.97E+00 at (   5,   3,   4)
       Max divergence:  0.61E-11 at (   1,   6,   6)
       Min divergence: -0.41E-11 at (   5,   6,   3)
       Max VN number:   0.13E+00 at (   1,   6,   6)
       Mesh    4
       Max CFL number:  0.97E+00 at (   1,   3,   4)
       Max divergence:  0.44E-11 at (   5,   3,   4)
       Min divergence: -0.40E-10 at (   5,   6,   6)
       Max VN number:   0.13E+00 at (   2,   1,   6)
 
       Time Step    2400   June 26, 2020  16:19:56
       Step Size:    0.201E-01 s, Total Time:      52.23 s
       Pressure Iterations:      1
       Maximum Velocity Error:  0.15E-01 on Mesh   2 at (   4   3   2)
       Maximum Pressure Error:  0.87E-08 on Mesh   4 at (   5   6   6)
       ScaRC: iterations    39, residual  0.38E-08, convergence rate   0.46E+00
       ---------------------------------------------------------------
       Mesh    1
       Max CFL number:  0.78E+00 at (   4,   3,   3)
       Max divergence:  0.80E-11 at (   1,   2,   2)
       Min divergence: -0.60E-11 at (   1,   2,   4)
       Max VN number:   0.10E+00 at (   2,   1,   3)
       Mesh    2
       Max CFL number:  0.85E+00 at (   4,   3,   4)
       Max divergence:  0.56E-11 at (   1,   6,   1)
       Min divergence: -0.42E-11 at (   5,   3,   2)
       Max VN number:   0.18E+00 at (   2,   3,   2)
       Mesh    3
       Max CFL number:  0.86E+00 at (   2,   3,   4)
       Max divergence:  0.69E-11 at (   1,   1,   1)
       Min divergence: -0.57E-11 at (   5,   1,   1)
       Max VN number:   0.12E+00 at (   1,   1,   6)
       Mesh    4
       Max CFL number:  0.85E+00 at (   1,   3,   4)
       Max divergence:  0.56E-11 at (   5,   3,   4)
       Min divergence: -0.72E-10 at (   5,   6,   6)
       Max VN number:   0.12E+00 at (   4,   6,   3)
 
       Time Step    2500   June 26, 2020  16:19:57
       Step Size:    0.222E-01 s, Total Time:      54.33 s
       Pressure Iterations:      1
       Maximum Velocity Error:  0.74E-02 on Mesh   2 at (   3   1   2)
       Maximum Pressure Error:  0.10E-07 on Mesh   4 at (   5   6   6)
       ScaRC: iterations    39, residual  0.40E-08, convergence rate   0.46E+00
       ---------------------------------------------------------------
       Mesh    1
       Max CFL number:  0.76E+00 at (   5,   4,   4)
       Max divergence:  0.12E-10 at (   2,   6,   6)
       Min divergence: -0.76E-11 at (   1,   2,   4)
       Max VN number:   0.12E+00 at (   4,   1,   3)
       Mesh    2
       Max CFL number:  0.82E+00 at (   3,   3,   4)
       Max divergence:  0.41E-11 at (   1,   6,   6)
       Min divergence: -0.32E-11 at (   5,   4,   4)
       Max VN number:   0.13E+00 at (   2,   1,   3)
       Mesh    3
       Max CFL number:  0.84E+00 at (   5,   3,   4)
       Max divergence:  0.56E-11 at (   1,   6,   6)
       Min divergence: -0.98E-11 at (   5,   1,   1)
       Max VN number:   0.13E+00 at (   3,   6,   6)
       Mesh    4
       Max CFL number:  0.84E+00 at (   1,   3,   4)
       Max divergence:  0.45E-11 at (   5,   3,   4)
       Min divergence: -0.82E-10 at (   5,   6,   6)
       Max VN number:   0.13E+00 at (   1,   6,   6)
 
       Time Step    2600   June 26, 2020  16:19:58
       Step Size:    0.222E-01 s, Total Time:      56.54 s
       Pressure Iterations:      1
       Maximum Velocity Error:  0.69E-02 on Mesh   2 at (   4   3   2)
       Maximum Pressure Error:  0.88E-08 on Mesh   4 at (   5   6   6)
       ScaRC: iterations    39, residual  0.32E-08, convergence rate   0.46E+00
       ---------------------------------------------------------------
       Mesh    1
       Max CFL number:  0.80E+00 at (   1,   4,   5)
       Max divergence:  0.14E-10 at (   2,   6,   6)
       Min divergence: -0.64E-11 at (   1,   2,   4)
       Max VN number:   0.12E+00 at (   3,   6,   6)
       Mesh    2
       Max CFL number:  0.84E+00 at (   3,   4,   4)
       Max divergence:  0.86E-11 at (   1,   6,   6)
       Min divergence: -0.37E-11 at (   5,   3,   4)
       Max VN number:   0.13E+00 at (   5,   1,   6)
       Mesh    3
       Max CFL number:  0.87E+00 at (   2,   4,   5)
       Max divergence:  0.56E-11 at (   1,   1,   1)
       Min divergence: -0.72E-11 at (   5,   1,   1)
       Max VN number:   0.13E+00 at (   1,   1,   6)
       Mesh    4
       Max CFL number:  0.85E+00 at (   2,   4,   5)
       Max divergence:  0.36E-11 at (   3,   2,   4)
       Min divergence: -0.69E-10 at (   5,   6,   6)
       Max VN number:   0.12E+00 at (   1,   6,   6)
 
       Time Step    2700   June 26, 2020  16:19:59
       Step Size:    0.197E-01 s, Total Time:      58.74 s
       Pressure Iterations:      2
       Maximum Velocity Error:  0.56E-02 on Mesh   2 at (   3   3   2)
       Maximum Pressure Error:  0.10E-07 on Mesh   4 at (   5   6   6)
       ScaRC: iterations    39, residual  0.40E-08, convergence rate   0.46E+00
       ---------------------------------------------------------------
       Mesh    1
       Max CFL number:  0.74E+00 at (   5,   4,   4)
       Max divergence:  0.73E-11 at (   2,   6,   6)
       Min divergence: -0.53E-11 at (   1,   4,   1)
       Max VN number:   0.13E+00 at (   3,   1,   3)
       Mesh    2
       Max CFL number:  0.84E+00 at (   5,   4,   4)
       Max divergence:  0.68E-11 at (   1,   6,   6)
       Min divergence: -0.58E-11 at (   5,   3,   2)
       Max VN number:   0.16E+00 at (   2,   5,   2)
       Mesh    3
       Max CFL number:  0.86E+00 at (   2,   4,   4)
       Max divergence:  0.85E-11 at (   1,   1,   1)
       Min divergence: -0.55E-11 at (   5,   1,   1)
       Max VN number:   0.11E+00 at (   1,   6,   6)
       Mesh    4
       Max CFL number:  0.85E+00 at (   1,   4,   4)
       Max divergence:  0.39E-11 at (   5,   3,   4)
       Min divergence: -0.73E-10 at (   5,   6,   6)
       Max VN number:   0.10E+00 at (   1,   6,   6)
 
       Time Step    2800   June 26, 2020  16:20:00
       Step Size:    0.216E-01 s, Total Time:      60.76 s
       Pressure Iterations:      1
       Maximum Velocity Error:  0.52E-02 on Mesh   2 at (   3   2   2)
       Maximum Pressure Error:  0.59E-08 on Mesh   4 at (   5   6   6)
       ScaRC: iterations    39, residual  0.27E-08, convergence rate   0.46E+00
       ---------------------------------------------------------------
       Mesh    1
       Max CFL number:  0.79E+00 at (   1,   3,   4)
       Max divergence:  0.90E-11 at (   2,   6,   6)
       Min divergence: -0.45E-11 at (   1,   6,   5)
       Max VN number:   0.12E+00 at (   2,   6,   3)
       Mesh    2
       Max CFL number:  0.87E+00 at (   5,   4,   4)
       Max divergence:  0.68E-11 at (   1,   6,   6)
       Min divergence: -0.27E-11 at (   5,   3,   4)
       Max VN number:   0.18E+00 at (   2,   4,   2)
       Mesh    3
       Max CFL number:  0.87E+00 at (   4,   4,   4)
       Max divergence:  0.48E-11 at (   1,   6,   6)
       Min divergence: -0.36E-11 at (   1,   2,   2)
       Max VN number:   0.13E+00 at (   1,   6,   6)
       Mesh    4
       Max CFL number:  0.84E+00 at (   1,   4,   4)
       Max divergence:  0.33E-11 at (   3,   5,   3)
       Min divergence: -0.46E-10 at (   5,   6,   6)
       Max VN number:   0.12E+00 at (   1,   6,   3)
 
       Time Step    2900   June 26, 2020  16:20:02
       Step Size:    0.216E-01 s, Total Time:      62.92 s
       Pressure Iterations:      1
       Maximum Velocity Error:  0.11E-01 on Mesh   2 at (   3   3   2)
       Maximum Pressure Error:  0.53E-08 on Mesh   4 at (   5   6   6)
       ScaRC: iterations    38, residual  0.71E-08, convergence rate   0.46E+00
       ---------------------------------------------------------------
       Mesh    1
       Max CFL number:  0.80E+00 at (   3,   3,   4)
       Max divergence:  0.17E-10 at (   1,   3,   4)
       Min divergence: -0.16E-10 at (   1,   4,   2)
       Max VN number:   0.12E+00 at (   2,   6,   3)
       Mesh    2
       Max CFL number:  0.87E+00 at (   5,   3,   4)
       Max divergence:  0.95E-11 at (   5,   1,   1)
       Min divergence: -0.56E-11 at (   1,   4,   4)
       Max VN number:   0.15E+00 at (   2,   5,   2)
       Mesh    3
       Max CFL number:  0.90E+00 at (   1,   3,   4)
       Max divergence:  0.75E-11 at (   1,   6,   6)
       Min divergence: -0.65E-11 at (   5,   1,   1)
       Max VN number:   0.13E+00 at (   3,   6,   6)
       Mesh    4
       Max CFL number:  0.90E+00 at (   1,   3,   4)
       Max divergence:  0.12E-10 at (   5,   1,   1)
       Min divergence: -0.40E-10 at (   5,   6,   6)
       Max VN number:   0.12E+00 at (   1,   6,   6)
 
       Time Step    3000   June 26, 2020  16:20:02
       Step Size:    0.216E-01 s, Total Time:      65.08 s
       Pressure Iterations:      1
       Maximum Velocity Error:  0.20E-01 on Mesh   2 at (   3   2   2)
       Maximum Pressure Error:  0.52E-08 on Mesh   4 at (   5   6   6)
       ScaRC: iterations    39, residual  0.28E-08, convergence rate   0.46E+00
       ---------------------------------------------------------------
       Mesh    1
       Max CFL number:  0.83E+00 at (   1,   4,   3)
       Max divergence:  0.62E-11 at (   2,   6,   6)
       Min divergence: -0.47E-11 at (   1,   2,   4)
       Max VN number:   0.12E+00 at (   3,   6,   3)
       Mesh    2
       Max CFL number:  0.88E+00 at (   5,   3,   4)
       Max divergence:  0.31E-11 at (   5,   1,   1)
       Min divergence: -0.30E-11 at (   5,   4,   2)
       Max VN number:   0.21E+00 at (   2,   5,   2)
       Mesh    3
       Max CFL number:  0.88E+00 at (   1,   3,   4)
       Max divergence:  0.52E-11 at (   1,   1,   1)
       Min divergence: -0.27E-11 at (   1,   4,   2)
       Max VN number:   0.12E+00 at (   1,   6,   6)
       Mesh    4
       Max CFL number:  0.84E+00 at (   1,   4,   4)
       Max divergence:  0.33E-11 at (   5,   4,   3)
       Min divergence: -0.40E-10 at (   5,   6,   6)
       Max VN number:   0.12E+00 at (   1,   1,   6)
 
       Time Step    3100   June 26, 2020  16:20:03
       Step Size:    0.216E-01 s, Total Time:      67.25 s
       Pressure Iterations:      1
       Maximum Velocity Error:  0.48E-02 on Mesh   2 at (   4   4   2)
       Maximum Pressure Error:  0.83E-08 on Mesh   4 at (   5   6   6)
       ScaRC: iterations    39, residual  0.37E-08, convergence rate   0.46E+00
       ---------------------------------------------------------------
       Mesh    1
       Max CFL number:  0.73E+00 at (   1,   2,   4)
       Max divergence:  0.93E-11 at (   2,   6,   6)
       Min divergence: -0.64E-11 at (   1,   2,   4)
       Max VN number:   0.11E+00 at (   4,   6,   3)
       Mesh    2
       Max CFL number:  0.82E+00 at (   4,   2,   4)
       Max divergence:  0.51E-11 at (   1,   6,   6)
       Min divergence: -0.36E-11 at (   5,   3,   4)
       Max VN number:   0.19E+00 at (   2,   2,   2)
       Mesh    3
       Max CFL number:  0.84E+00 at (   3,   5,   4)
[...]
       Min divergence: -0.50E-11 at (   1,   2,   4)
       Max VN number:   0.11E+00 at (   1,   1,   6)
       Mesh    2
       Max CFL number:  0.82E+00 at (   5,   3,   4)
       Max divergence:  0.72E-11 at (   1,   6,   6)
       Min divergence: -0.31E-11 at (   1,   6,   2)
       Max VN number:   0.15E+00 at (   2,   3,   2)
       Mesh    3
       Max CFL number:  0.84E+00 at (   4,   3,   4)
       Max divergence:  0.51E-11 at (   1,   6,   6)
       Min divergence: -0.42E-11 at (   5,   6,   3)
       Max VN number:   0.12E+00 at (   1,   6,   6)
       Mesh    4
       Max CFL number:  0.79E+00 at (   2,   3,   4)
       Max divergence:  0.36E-11 at (   5,   3,   4)
       Min divergence: -0.41E-10 at (   5,   6,   6)
       Max VN number:   0.12E+00 at (   1,   1,   6)
 
       Time Step    3400   June 26, 2020  16:20:07
       Step Size:    0.211E-01 s, Total Time:      73.75 s
       Pressure Iterations:      1
       Maximum Velocity Error:  0.66E-02 on Mesh   2 at (   3   1   2)
       Maximum Pressure Error:  0.29E-08 on Mesh   4 at (   5   6   6)
       ScaRC: iterations    38, residual  0.70E-08, convergence rate   0.47E+00
       ---------------------------------------------------------------
       Mesh    1
       Max CFL number:  0.77E+00 at (   3,   4,   4)
       Max divergence:  0.12E-10 at (   1,   3,   4)
       Min divergence: -0.79E-11 at (   1,   4,   4)
       Max VN number:   0.11E+00 at (   1,   1,   6)
       Mesh    2
       Max CFL number:  0.83E+00 at (   5,   3,   4)
       Max divergence:  0.12E-10 at (   5,   1,   1)
       Min divergence: -0.95E-11 at (   5,   1,   6)
       Max VN number:   0.13E+00 at (   2,   3,   2)
       Mesh    3
       Max CFL number:  0.84E+00 at (   3,   4,   4)
       Max divergence:  0.45E-11 at (   1,   6,   1)
       Min divergence: -0.39E-11 at (   1,   3,   1)
       Max VN number:   0.12E+00 at (   1,   6,   6)
       Mesh    4
       Max CFL number:  0.82E+00 at (   2,   4,   4)
       Max divergence:  0.14E-10 at (   5,   1,   1)
       Min divergence: -0.20E-10 at (   5,   6,   6)
       Max VN number:   0.12E+00 at (   1,   1,   6)
 
       Time Step    3500   June 26, 2020  16:20:09
       Step Size:    0.211E-01 s, Total Time:      75.86 s
       Pressure Iterations:      1
       Maximum Velocity Error:  0.71E-02 on Mesh   2 at (   3   4   2)
       Maximum Pressure Error:  0.14E-07 on Mesh   4 at (   5   6   6)
       ScaRC: iterations    39, residual  0.48E-08, convergence rate   0.46E+00
       ---------------------------------------------------------------
       Mesh    1
       Max CFL number:  0.79E+00 at (   1,   4,   4)
       Max divergence:  0.94E-11 at (   2,   6,   6)
       Min divergence: -0.81E-11 at (   5,   1,   1)
       Max VN number:   0.11E+00 at (   1,   6,   3)
       Mesh    2
       Max CFL number:  0.82E+00 at (   4,   4,   4)
       Max divergence:  0.69E-11 at (   1,   6,   6)
       Min divergence: -0.52E-11 at (   5,   3,   4)
       Max VN number:   0.14E+00 at (   2,   4,   2)
       Mesh    3
       Max CFL number:  0.83E+00 at (   1,   4,   4)
       Max divergence:  0.79E-11 at (   5,   3,   3)
       Min divergence: -0.12E-10 at (   5,   1,   1)
       Max VN number:   0.12E+00 at (   1,   1,   6)
       Mesh    4
       Max CFL number:  0.82E+00 at (   2,   3,   4)
       Max divergence:  0.46E-11 at (   5,   4,   3)
       Min divergence: -0.11E-09 at (   5,   6,   6)
       Max VN number:   0.11E+00 at (   1,   1,   6)
 
       Time Step    3600   June 26, 2020  16:20:11
       Step Size:    0.211E-01 s, Total Time:      77.97 s
       Pressure Iterations:      1
       Maximum Velocity Error:  0.14E-01 on Mesh   2 at (   4   2   2)
       Maximum Pressure Error:  0.40E-08 on Mesh   4 at (   5   6   6)
       ScaRC: iterations    38, residual  0.95E-08, convergence rate   0.47E+00
       ---------------------------------------------------------------
       Mesh    1
       Max CFL number:  0.82E+00 at (   2,   3,   4)
       Max divergence:  0.15E-10 at (   1,   3,   4)
       Min divergence: -0.14E-10 at (   1,   2,   4)
       Max VN number:   0.12E+00 at (   2,   1,   3)
       Mesh    2
       Max CFL number:  0.85E+00 at (   2,   3,   4)
       Max divergence:  0.16E-10 at (   5,   1,   1)
       Min divergence: -0.11E-10 at (   5,   1,   6)
       Max VN number:   0.15E+00 at (   2,   4,   2)
       Mesh    3
       Max CFL number:  0.83E+00 at (   3,   3,   4)
       Max divergence:  0.88E-11 at (   5,   1,   1)
       Min divergence: -0.77E-11 at (   5,   3,   4)
       Max VN number:   0.12E+00 at (   2,   1,   6)
       Mesh    4
       Max CFL number:  0.81E+00 at (   1,   4,   5)
       Max divergence:  0.24E-10 at (   5,   1,   1)
       Min divergence: -0.30E-10 at (   5,   6,   6)
       Max VN number:   0.11E+00 at (   1,   6,   6)
 
       Time Step    3700   June 26, 2020  16:20:13
       Step Size:    0.211E-01 s, Total Time:      80.09 s
       Pressure Iterations:      1
       Maximum Velocity Error:  0.22E-01 on Mesh   2 at (   4   5   2)
       Maximum Pressure Error:  0.16E-07 on Mesh   4 at (   5   6   6)
       ScaRC: iterations    39, residual  0.57E-08, convergence rate   0.46E+00
       ---------------------------------------------------------------
       Mesh    1
       Max CFL number:  0.81E+00 at (   2,   3,   4)
       Max divergence:  0.12E-10 at (   1,   3,   4)
       Min divergence: -0.89E-11 at (   5,   1,   1)
       Max VN number:   0.12E+00 at (   5,   6,   3)
       Mesh    2
       Max CFL number:  0.82E+00 at (   5,   4,   4)
       Max divergence:  0.70E-11 at (   1,   6,   6)
       Min divergence: -0.46E-11 at (   5,   3,   4)
       Max VN number:   0.16E+00 at (   2,   3,   2)
       Mesh    3
       Max CFL number:  0.85E+00 at (   5,   3,   4)
       Max divergence:  0.83E-11 at (   5,   3,   3)
       Min divergence: -0.15E-10 at (   5,   1,   1)
       Max VN number:   0.12E+00 at (   3,   1,   6)
       Mesh    4
       Max CFL number:  0.85E+00 at (   1,   3,   4)
       Max divergence:  0.57E-11 at (   5,   4,   3)
       Min divergence: -0.13E-09 at (   5,   6,   6)
       Max VN number:   0.12E+00 at (   1,   1,   3)
 
       Time Step    3800   June 26, 2020  16:20:14
       Step Size:    0.211E-01 s, Total Time:      82.20 s
       Pressure Iterations:      1
       Maximum Velocity Error:  0.70E-02 on Mesh   2 at (   4   2   2)
       Maximum Pressure Error:  0.97E-08 on Mesh   4 at (   5   6   6)
       ScaRC: iterations    39, residual  0.36E-08, convergence rate   0.46E+00
       ---------------------------------------------------------------
       Mesh    1
       Max CFL number:  0.77E+00 at (   4,   4,   4)
       Max divergence:  0.15E-10 at (   2,   6,   6)
       Min divergence: -0.59E-11 at (   1,   6,   5)
       Max VN number:   0.12E+00 at (   5,   1,   3)
       Mesh    2
       Max CFL number:  0.84E+00 at (   4,   3,   4)
       Max divergence:  0.81E-11 at (   1,   6,   6)
       Min divergence: -0.41E-11 at (   5,   4,   4)
       Max VN number:   0.15E+00 at (   2,   2,   2)
       Mesh    3
       Max CFL number:  0.82E+00 at (   4,   3,   4)
       Max divergence:  0.54E-11 at (   1,   6,   6)
       Min divergence: -0.70E-11 at (   5,   1,   1)
       Max VN number:   0.12E+00 at (   1,   6,   6)
       Mesh    4
       Max CFL number:  0.78E+00 at (   1,   3,   4)
       Max divergence:  0.37E-11 at (   3,   3,   2)
       Min divergence: -0.71E-10 at (   5,   6,   6)
       Max VN number:   0.12E+00 at (   1,   1,   6)
 
       Time Step    3900   June 26, 2020  16:20:16
       Step Size:    0.211E-01 s, Total Time:      84.31 s
       Pressure Iterations:      1
       Maximum Velocity Error:  0.18E-01 on Mesh   2 at (   3   5   2)
       Maximum Pressure Error:  0.11E-07 on Mesh   4 at (   5   6   6)
       ScaRC: iterations    39, residual  0.39E-08, convergence rate   0.46E+00
       ---------------------------------------------------------------
       Mesh    1
       Max CFL number:  0.79E+00 at (   5,   4,   4)
       Max divergence:  0.15E-10 at (   2,   6,   6)
       Min divergence: -0.72E-11 at (   1,   6,   5)
       Max VN number:   0.11E+00 at (   5,   6,   3)
       Mesh    2
       Max CFL number:  0.87E+00 at (   4,   3,   4)
       Max divergence:  0.72E-11 at (   5,   6,   1)
       Min divergence: -0.53E-11 at (   5,   5,   2)
       Max VN number:   0.18E+00 at (   2,   2,   2)
       Mesh    3
       Max CFL number:  0.89E+00 at (   3,   3,   4)
       Max divergence:  0.64E-11 at (   1,   1,   1)
       Min divergence: -0.78E-11 at (   5,   1,   1)
       Max VN number:   0.12E+00 at (   1,   1,   6)
       Mesh    4
       Max CFL number:  0.87E+00 at (   1,   4,   4)
       Max divergence:  0.33E-11 at (   3,   3,   3)
       Min divergence: -0.73E-10 at (   5,   6,   6)
       Max VN number:   0.12E+00 at (   1,   1,   6)
 
       Time Step    4000   June 26, 2020  16:20:17
       Step Size:    0.232E-01 s, Total Time:      86.51 s
       Pressure Iterations:      1
       Maximum Velocity Error:  0.12E-01 on Mesh   2 at (   4   3   2)
       Maximum Pressure Error:  0.12E-08 on Mesh   1 at (   1   5   5)
       ScaRC: iterations    37, residual  0.58E-08, convergence rate   0.47E+00
       ---------------------------------------------------------------
       Mesh    1
       Max CFL number:  0.85E+00 at (   3,   3,   4)
       Max divergence:  0.14E-10 at (   1,   1,   1)
       Min divergence: -0.14E-10 at (   1,   5,   5)
       Max VN number:   0.13E+00 at (   4,   1,   3)
       Mesh    2
       Max CFL number:  0.91E+00 at (   4,   3,   4)
       Max divergence:  0.74E-11 at (   1,   6,   6)
       Min divergence: -0.85E-11 at (   1,   2,   5)
       Max VN number:   0.20E+00 at (   2,   2,   2)
       Mesh    3
       Max CFL number:  0.93E+00 at (   1,   3,   4)
       Max divergence:  0.86E-11 at (   1,   6,   6)
       Min divergence: -0.71E-11 at (   1,   2,   5)
       Max VN number:   0.14E+00 at (   3,   6,   6)
       Mesh    4
       Max CFL number:  0.91E+00 at (   1,   3,   4)
       Max divergence:  0.64E-11 at (   1,   1,   2)
       Min divergence: -0.93E-11 at (   5,   2,   5)
       Max VN number:   0.13E+00 at (   1,   6,   6)
 
       Time Step    4100   June 26, 2020  16:20:18
       Step Size:    0.206E-01 s, Total Time:      88.74 s
       Pressure Iterations:      2
       Maximum Velocity Error:  0.89E-02 on Mesh   2 at (   3   5   2)
       Maximum Pressure Error:  0.62E-08 on Mesh   4 at (   5   6   6)
       ScaRC: iterations    39, residual  0.33E-08, convergence rate   0.46E+00
       ---------------------------------------------------------------
       Mesh    1
       Max CFL number:  0.82E+00 at (   2,   3,   3)
       Max divergence:  0.64E-11 at (   1,   2,   2)
       Min divergence: -0.58E-11 at (   1,   4,   2)
       Max VN number:   0.11E+00 at (   1,   6,   3)
       Mesh    2
       Max CFL number:  0.90E+00 at (   2,   3,   3)
       Max divergence:  0.48E-11 at (   2,   3,   3)
       Min divergence: -0.42E-11 at (   5,   4,   2)
       Max VN number:   0.23E+00 at (   2,   3,   2)
       Mesh    3
       Max CFL number:  0.89E+00 at (   3,   3,   4)
       Max divergence:  0.48E-11 at (   1,   1,   1)
       Min divergence: -0.38E-11 at (   1,   4,   2)
       Max VN number:   0.12E+00 at (   1,   1,   6)
       Mesh    4
       Max CFL number:  0.82E+00 at (   3,   3,   3)
       Max divergence:  0.41E-11 at (   5,   4,   3)
       Min divergence: -0.46E-10 at (   5,   6,   6)
       Max VN number:   0.12E+00 at (   1,   6,   3)
 
       Time Step    4200   June 26, 2020  16:20:19
       Step Size:    0.227E-01 s, Total Time:      90.86 s
       Pressure Iterations:      1
       Maximum Velocity Error:  0.90E-02 on Mesh   2 at (   3   2   2)
       Maximum Pressure Error:  0.59E-08 on Mesh   4 at (   5   6   6)
       ScaRC: iterations    39, residual  0.28E-08, convergence rate   0.46E+00
       ---------------------------------------------------------------
       Mesh    1
       Max CFL number:  0.83E+00 at (   1,   5,   3)
       Max divergence:  0.61E-11 at (   1,   2,   2)
       Min divergence: -0.52E-11 at (   1,   2,   4)
       Max VN number:   0.12E+00 at (   2,   1,   3)
       Mesh    2
       Max CFL number:  0.90E+00 at (   3,   3,   3)
       Max divergence:  0.41E-11 at (   1,   6,   6)
       Min divergence: -0.31E-11 at (   5,   5,   4)
       Max VN number:   0.22E+00 at (   2,   3,   2)
       Mesh    3
       Max CFL number:  0.89E+00 at (   1,   4,   4)
       Max divergence:  0.35E-11 at (   1,   6,   6)
       Min divergence: -0.29E-11 at (   5,   1,   1)
       Max VN number:   0.14E+00 at (   1,   6,   6)
       Mesh    4
       Max CFL number:  0.83E+00 at (   5,   5,   3)
       Max divergence:  0.43E-11 at (   5,   3,   4)
       Min divergence: -0.49E-10 at (   5,   6,   6)
       Max VN number:   0.14E+00 at (   5,   5,   3)
 
       Time Step    4300   June 26, 2020  16:20:21
       Step Size:    0.227E-01 s, Total Time:      93.13 s
       Pressure Iterations:      1
       Maximum Velocity Error:  0.13E-01 on Mesh   2 at (   3   4   2)
       Maximum Pressure Error:  0.46E-08 on Mesh   4 at (   5   6   6)
       ScaRC: iterations    39, residual  0.27E-08, convergence rate   0.46E+00
       ---------------------------------------------------------------
       Mesh    1
       Max CFL number:  0.82E+00 at (   4,   3,   3)
       Max divergence:  0.60E-11 at (   2,   6,   6)
       Min divergence: -0.53E-11 at (   1,   2,   4)
       Max VN number:   0.13E+00 at (   5,   1,   3)
       Mesh    2
       Max CFL number:  0.91E+00 at (   2,   3,   3)
       Max divergence:  0.52E-11 at (   2,   3,   3)
       Min divergence: -0.37E-11 at (   1,   3,   3)
       Max VN number:   0.23E+00 at (   2,   4,   2)
       Mesh    3
       Max CFL number:  0.90E+00 at (   5,   4,   4)
       Max divergence:  0.66E-11 at (   1,   1,   1)
       Min divergence: -0.37E-11 at (   1,   4,   2)
       Max VN number:   0.14E+00 at (   3,   1,   6)
       Mesh    4
       Max CFL number:  0.90E+00 at (   1,   4,   4)
       Max divergence:  0.51E-11 at (   5,   4,   3)
       Min divergence: -0.37E-10 at (   5,   6,   6)
       Max VN number:   0.13E+00 at (   1,   1,   6)
 
       Time Step    4400   June 26, 2020  16:20:22
       Step Size:    0.227E-01 s, Total Time:      95.40 s
       Pressure Iterations:      1
       Maximum Velocity Error:  0.58E-02 on Mesh   2 at (   4   2   2)
       Maximum Pressure Error:  0.64E-08 on Mesh   4 at (   5   6   6)
       ScaRC: iterations    39, residual  0.31E-08, convergence rate   0.46E+00
       ---------------------------------------------------------------
       Mesh    1
       Max CFL number:  0.81E+00 at (   4,   3,   3)
       Max divergence:  0.13E-10 at (   2,   6,   6)
       Min divergence: -0.62E-11 at (   1,   2,   4)
       Max VN number:   0.13E+00 at (   2,   1,   3)
       Mesh    2
       Max CFL number:  0.86E+00 at (   3,   4,   4)
       Max divergence:  0.48E-11 at (   1,   6,   6)
       Min divergence: -0.29E-11 at (   1,   4,   4)
       Max VN number:   0.20E+00 at (   2,   3,   2)
       Mesh    3
       Max CFL number:  0.90E+00 at (   3,   4,   4)
       Max divergence:  0.56E-11 at (   1,   1,   1)
       Min divergence: -0.44E-11 at (   5,   6,   3)
       Max VN number:   0.13E+00 at (   2,   1,   6)
       Mesh    4
       Max CFL number:  0.86E+00 at (   1,   5,   4)
       Max divergence:  0.40E-11 at (   5,   3,   4)
       Min divergence: -0.49E-10 at (   5,   6,   6)
       Max VN number:   0.12E+00 at (   1,   1,   6)
 
       Time Step    4500   June 26, 2020  16:20:23
       Step Size:    0.227E-01 s, Total Time:      97.67 s
       Pressure Iterations:      1
       Maximum Velocity Error:  0.24E-01 on Mesh   2 at (   3   5   2)
       Maximum Pressure Error:  0.12E-08 on Mesh   1 at (   1   5   5)
       ScaRC: iterations    37, residual  0.65E-08, convergence rate   0.47E+00
       ---------------------------------------------------------------
       Mesh    1
       Max CFL number:  0.84E+00 at (   2,   3,   3)
       Max divergence:  0.14E-10 at (   1,   6,   6)
       Min divergence: -0.14E-10 at (   1,   5,   5)
       Max VN number:   0.15E+00 at (   3,   6,   3)
       Mesh    2
       Max CFL number:  0.95E+00 at (   5,   3,   4)
       Max divergence:  0.89E-11 at (   5,   2,   6)
       Min divergence: -0.13E-10 at (   5,   1,   1)
       Max VN number:   0.21E+00 at (   2,   3,   2)
       Mesh    3
       Max CFL number:  0.95E+00 at (   1,   3,   4)
       Max divergence:  0.88E-11 at (   1,   3,   5)
       Min divergence: -0.95E-11 at (   1,   2,   5)
       Max VN number:   0.13E+00 at (   1,   1,   6)
       Mesh    4
       Max CFL number:  0.91E+00 at (   1,   3,   4)
       Max divergence:  0.21E-10 at (   5,   6,   6)
       Min divergence: -0.13E-10 at (   5,   4,   4)
       Max VN number:   0.12E+00 at (   1,   6,   3)
 
       Time Step    4600   June 26, 2020  16:20:24
       Step Size:    0.224E-01 s, Total Time:      99.81 s
       Pressure Iterations:      1
       Maximum Velocity Error:  0.63E-02 on Mesh   2 at (   3   6   2)
       Maximum Pressure Error:  0.15E-08 on Mesh   3 at (   1   1   1)
       ScaRC: iterations    37, residual  0.80E-08, convergence rate   0.47E+00
       ---------------------------------------------------------------
       Mesh    1
       Max CFL number:  0.78E+00 at (   1,   4,   4)
       Max divergence:  0.10E-10 at (   1,   6,   3)
       Min divergence: -0.10E-10 at (   5,   3,   4)
       Max VN number:   0.13E+00 at (   5,   1,   3)
       Mesh    2
       Max CFL number:  0.85E+00 at (   3,   4,   4)
       Max divergence:  0.93E-11 at (   1,   2,   4)
       Min divergence: -0.90E-11 at (   5,   2,   2)
       Max VN number:   0.16E+00 at (   2,   3,   2)
       Mesh    3
       Max CFL number:  0.87E+00 at (   5,   4,   4)
       Max divergence:  0.72E-11 at (   5,   2,   3)
       Min divergence: -0.15E-10 at (   1,   1,   1)
       Max VN number:   0.13E+00 at (   3,   1,   6)
       Mesh    4
       Max CFL number:  0.87E+00 at (   1,   4,   4)
       Max divergence:  0.14E-10 at (   5,   5,   4)
       Min divergence: -0.12E-10 at (   5,   4,   4)
       Max VN number:   0.13E+00 at (   3,   1,   3)
 
       Time Step    4609   June 26, 2020  16:20:24
       Step Size:    0.611E-02 s, Total Time:     100.00 s
       Pressure Iterations:      1
       Maximum Velocity Error:  0.18E-02 on Mesh   2 at (   3   4   2)
       Maximum Pressure Error:  0.20E-08 on Mesh   4 at (   5   6   6)
       ScaRC: iterations    38, residual  0.55E-08, convergence rate   0.47E+00
       ---------------------------------------------------------------
       Mesh    1
       Max CFL number:  0.21E+00 at (   2,   4,   4)
       Max divergence:  0.38E-11 at (   1,   3,   4)
       Min divergence: -0.30E-11 at (   1,   4,   2)
       Max VN number:   0.35E-01 at (   1,   1,   3)
       Mesh    2
       Max CFL number:  0.23E+00 at (   3,   4,   4)
       Max divergence:  0.39E-11 at (   5,   1,   1)
       Min divergence: -0.30E-11 at (   5,   1,   6)
       Max VN number:   0.44E-01 at (   2,   4,   2)
       Mesh    3
       Max CFL number:  0.24E+00 at (   2,   4,   4)
       Max divergence:  0.26E-11 at (   2,   5,   3)
       Min divergence: -0.53E-11 at (   1,   1,   2)
       Max VN number:   0.36E-01 at (   1,   1,   6)
       Mesh    4
       Max CFL number:  0.23E+00 at (   1,   4,   4)
       Max divergence:  0.27E-11 at (   1,   5,   2)
       Min divergence: -0.29E-11 at (   1,   1,   2)
       Max VN number:   0.34E-01 at (   5,   1,   3)
 


 Time Stepping Wall Clock Time (s):       69.074
 Total Elapsed Wall Clock Time (s):       70.582

STOP: FDS completed successfully (CHID: ribbed_channel_20_4mesh_uscarc)
