
 Fire Dynamics Simulator

 Current Date     : June 26, 2020  16:19:47
 Revision         : -AMG
 Revision Date    : Fri Jun 26 15:19:14 2020 +0200
 Compiler         : Intel ifort 19.0.5.281
 Compilation Date : Jun 26, 2020 15:25:32

 MPI Enabled;    Number of MPI Processes:       4
 OpenMP Enabled; Number of OpenMP Threads:      4

 MPI version: 3.1
 MPI library version: Intel(R) MPI Library 2018 Update 1 for Linux* OS


 Job TITLE        : Ribbed channel flow at Re_D=40,000
 Job ID string    : ribbed_channel_80_4mesh_uscarc


 Grid Dimensions, Mesh     1

   Cells in the X Direction            20
   Cells in the Y Direction            24
   Cells in the Z Direction            24
   Number of Grid Cells             11520


 Physical Dimensions, Mesh     1

   Length (m)                       0.250
   Width  (m)                       0.300
   Height (m)                       0.300
   Initial Time Step (s)            0.012

 Grid Dimensions, Mesh     2

   Cells in the X Direction            20
   Cells in the Y Direction            24
   Cells in the Z Direction            24
   Number of Grid Cells             11520


 Physical Dimensions, Mesh     2

   Length (m)                       0.250
   Width  (m)                       0.300
   Height (m)                       0.300
   Initial Time Step (s)            0.012

 Grid Dimensions, Mesh     3

   Cells in the X Direction            20
   Cells in the Y Direction            24
   Cells in the Z Direction            24
   Number of Grid Cells             11520


 Physical Dimensions, Mesh     3

   Length (m)                       0.250
   Width  (m)                       0.300
   Height (m)                       0.300
   Initial Time Step (s)            0.012

 Grid Dimensions, Mesh     4

   Cells in the X Direction            20
   Cells in the Y Direction            24
   Cells in the Z Direction            24
   Number of Grid Cells             11520


 Physical Dimensions, Mesh     4

   Length (m)                       0.250
   Width  (m)                       0.300
   Height (m)                       0.300
   Initial Time Step (s)            0.012

Total Number of Grid Cells         46080


 Miscellaneous Parameters

   Simulation Start Time (s)          0.0
   Simulation End Time (s)          100.0
   LES Calculation
   Eddy Viscosity:           Deardorff Model (C_DEARDORFF = 0.10)
   Near-wall Eddy Viscosity: Smagorinsky with Van Driest damping (C_SMAGORINSKY = 0.20)
   Turbulent Prandtl Number:         0.50
   Turbulent Schmidt Number:         0.50
   Ambient Temperature (C):         20.00


 Mass Fraction Transformation Matrix to Convert Species Mixtures (Columns) to Primitive Species (Rows)

                         AIR     
   AIR                   1.000000


 Primitive Species Information

   AIR
   Gas Species
   Molecular Weight (g/mol)            28.01340
   Ambient Density (kg/m^3)            1.165
   Enthalpy of Formation (J/kg)        0.00E+00


 Tracked (Lumped) Species Information

   AIR
   Molecular Weight (g/mol)            28.01340
   Ambient Density (kg/m^3)            1.165
   Initial Mass Fraction               1.000
   Enthalpy of Formation (J/kg)      0.00E+00

   Sub Species                    Mass Fraction     Mole Fraction
   AIR                            1.000000E+00      1.000000E+00
 
     Viscosity (kg/m/s) Ambient,  293 K:  1.20E-05
                                  500 K:  1.20E-05
                                 1000 K:  1.20E-05
                                 1500 K:  1.20E-05
   Therm. Cond. (W/m/K) Ambient,  293 K:  1.76E-02
                                  500 K:  1.76E-02
                                 1000 K:  1.76E-02
                                 1500 K:  1.76E-02
        Enthalpy (J/kg) Ambient,  293 K:  3.05E+05
                                  500 K:  5.19E+05
                                 1000 K:  1.04E+06
                                 1500 K:  1.56E+06
    Spec. Heat (J/kg/K) Ambient,  293 K:  1.04E+03
                                  500 K:  1.04E+03
                                 1000 K:  1.04E+03
                                 1500 K:  1.04E+03
   Diff. Coeff. (m^2/s) Ambient,  293 K:  1.99E-05
                                  500 K:  4.93E-05
                                 1000 K:  1.57E-04
                                 1500 K:  3.07E-04


 Material Information


 Surface Conditions

   0 INERT

   1 wall (DEFAULT)

   2 OPEN
     Passive Vent to Atmosphere

   3 MIRROR
     Symmetry Plane

   4 INTERPOLATED

   5 PERIODIC

   6 HVAC

   7 MASSLESS TRACER

   8 DROPLET

   9 EVACUATION_OUTFLOW
     Normal Velocity (m/s)         0.000

  10 MASSLESS TARGET

  11 PERIODIC WIND


 Device Coordinates

     1 Coords:     -0.393750      0.000000      0.150000, Make: null, ID: Ub, Quantity: U-VELOCITY
     2 Coords:     -0.393750      0.000000      0.006250, Make: null, ID: u_strm_bot, Quantity: U-VELOCITY
     3 Coords:     -0.381250      0.000000      0.006250, Make: null, ID: u_strm_bot, Quantity: U-VELOCITY
     4 Coords:     -0.368750      0.000000      0.006250, Make: null, ID: u_strm_bot, Quantity: U-VELOCITY
     5 Coords:     -0.356250      0.000000      0.006250, Make: null, ID: u_strm_bot, Quantity: U-VELOCITY
     6 Coords:     -0.343750      0.000000      0.006250, Make: null, ID: u_strm_bot, Quantity: U-VELOCITY
     7 Coords:     -0.331250      0.000000      0.006250, Make: null, ID: u_strm_bot, Quantity: U-VELOCITY
     8 Coords:     -0.318750      0.000000      0.006250, Make: null, ID: u_strm_bot, Quantity: U-VELOCITY
     9 Coords:     -0.306250      0.000000      0.006250, Make: null, ID: u_strm_bot, Quantity: U-VELOCITY
    10 Coords:     -0.293750      0.000000      0.006250, Make: null, ID: u_strm_bot, Quantity: U-VELOCITY
    11 Coords:     -0.281250      0.000000      0.006250, Make: null, ID: u_strm_bot, Quantity: U-VELOCITY
    12 Coords:     -0.268750      0.000000      0.006250, Make: null, ID: u_strm_bot, Quantity: U-VELOCITY
    13 Coords:     -0.256250      0.000000      0.006250, Make: null, ID: u_strm_bot, Quantity: U-VELOCITY
    14 Coords:     -0.243750      0.000000      0.006250, Make: null, ID: u_strm_bot, Quantity: U-VELOCITY
    15 Coords:     -0.231250      0.000000      0.006250, Make: null, ID: u_strm_bot, Quantity: U-VELOCITY
    16 Coords:     -0.218750      0.000000      0.006250, Make: null, ID: u_strm_bot, Quantity: U-VELOCITY
    17 Coords:     -0.206250      0.000000      0.006250, Make: null, ID: u_strm_bot, Quantity: U-VELOCITY
    18 Coords:     -0.193750      0.000000      0.006250, Make: null, ID: u_strm_bot, Quantity: U-VELOCITY
    19 Coords:     -0.181250      0.000000      0.006250, Make: null, ID: u_strm_bot, Quantity: U-VELOCITY
    20 Coords:     -0.168750      0.000000      0.006250, Make: null, ID: u_strm_bot, Quantity: U-VELOCITY
    21 Coords:     -0.156250      0.000000      0.006250, Make: null, ID: u_strm_bot, Quantity: U-VELOCITY
    22 Coords:     -0.143750      0.000000      0.006250, Make: null, ID: u_strm_bot, Quantity: U-VELOCITY
    23 Coords:     -0.131250      0.000000      0.006250, Make: null, ID: u_strm_bot, Quantity: U-VELOCITY
    24 Coords:     -0.118750      0.000000      0.006250, Make: null, ID: u_strm_bot, Quantity: U-VELOCITY
    25 Coords:     -0.106250      0.000000      0.006250, Make: null, ID: u_strm_bot, Quantity: U-VELOCITY
    26 Coords:     -0.093750      0.000000      0.006250, Make: null, ID: u_strm_bot, Quantity: U-VELOCITY
    27 Coords:     -0.081250      0.000000      0.006250, Make: null, ID: u_strm_bot, Quantity: U-VELOCITY
    28 Coords:     -0.068750      0.000000      0.006250, Make: null, ID: u_strm_bot, Quantity: U-VELOCITY
    29 Coords:     -0.056250      0.000000      0.006250, Make: null, ID: u_strm_bot, Quantity: U-VELOCITY
    30 Coords:     -0.043750      0.000000      0.006250, Make: null, ID: u_strm_bot, Quantity: U-VELOCITY
    31 Coords:     -0.031250      0.000000      0.006250, Make: null, ID: u_strm_bot, Quantity: U-VELOCITY
    32 Coords:     -0.018750      0.000000      0.006250, Make: null, ID: u_strm_bot, Quantity: U-VELOCITY
    33 Coords:     -0.006250      0.000000      0.006250, Make: null, ID: u_strm_bot, Quantity: U-VELOCITY
    34 Coords:      0.006250      0.000000      0.006250, Make: null, ID: u_strm_bot, Quantity: U-VELOCITY
    35 Coords:      0.018750      0.000000      0.006250, Make: null, ID: u_strm_bot, Quantity: U-VELOCITY
    36 Coords:      0.031250      0.000000      0.006250, Make: null, ID: u_strm_bot, Quantity: U-VELOCITY
    37 Coords:      0.043750      0.000000      0.006250, Make: null, ID: u_strm_bot, Quantity: U-VELOCITY
    38 Coords:      0.056250      0.000000      0.006250, Make: null, ID: u_strm_bot, Quantity: U-VELOCITY
    39 Coords:      0.068750      0.000000      0.006250, Make: null, ID: u_strm_bot, Quantity: U-VELOCITY
    40 Coords:      0.081250      0.000000      0.006250, Make: null, ID: u_strm_bot, Quantity: U-VELOCITY
    41 Coords:      0.093750      0.000000      0.006250, Make: null, ID: u_strm_bot, Quantity: U-VELOCITY
    42 Coords:      0.106250      0.000000      0.006250, Make: null, ID: u_strm_bot, Quantity: U-VELOCITY
    43 Coords:      0.118750      0.000000      0.006250, Make: null, ID: u_strm_bot, Quantity: U-VELOCITY
    44 Coords:      0.131250      0.000000      0.006250, Make: null, ID: u_strm_bot, Quantity: U-VELOCITY
    45 Coords:      0.143750      0.000000      0.006250, Make: null, ID: u_strm_bot, Quantity: U-VELOCITY
    46 Coords:      0.156250      0.000000      0.006250, Make: null, ID: u_strm_bot, Quantity: U-VELOCITY
    47 Coords:      0.168750      0.000000      0.006250, Make: null, ID: u_strm_bot, Quantity: U-VELOCITY
    48 Coords:      0.181250      0.000000      0.006250, Make: null, ID: u_strm_bot, Quantity: U-VELOCITY
    49 Coords:      0.193750      0.000000      0.006250, Make: null, ID: u_strm_bot, Quantity: U-VELOCITY
    50 Coords:      0.206250      0.000000      0.006250, Make: null, ID: u_strm_bot, Quantity: U-VELOCITY
    51 Coords:      0.218750      0.000000      0.006250, Make: null, ID: u_strm_bot, Quantity: U-VELOCITY
    52 Coords:      0.231250      0.000000      0.006250, Make: null, ID: u_strm_bot, Quantity: U-VELOCITY
    53 Coords:      0.243750      0.000000      0.006250, Make: null, ID: u_strm_bot, Quantity: U-VELOCITY
    54 Coords:      0.256250      0.000000      0.006250, Make: null, ID: u_strm_bot, Quantity: U-VELOCITY
    55 Coords:      0.268750      0.000000      0.006250, Make: null, ID: u_strm_bot, Quantity: U-VELOCITY
    56 Coords:      0.281250      0.000000      0.006250, Make: null, ID: u_strm_bot, Quantity: U-VELOCITY
    57 Coords:      0.293750      0.000000      0.006250, Make: null, ID: u_strm_bot, Quantity: U-VELOCITY
    58 Coords:      0.306250      0.000000      0.006250, Make: null, ID: u_strm_bot, Quantity: U-VELOCITY
    59 Coords:      0.318750      0.000000      0.006250, Make: null, ID: u_strm_bot, Quantity: U-VELOCITY
    60 Coords:      0.331250      0.000000      0.006250, Make: null, ID: u_strm_bot, Quantity: U-VELOCITY
    61 Coords:      0.343750      0.000000      0.006250, Make: null, ID: u_strm_bot, Quantity: U-VELOCITY
    62 Coords:      0.356250      0.000000      0.006250, Make: null, ID: u_strm_bot, Quantity: U-VELOCITY
    63 Coords:      0.368750      0.000000      0.006250, Make: null, ID: u_strm_bot, Quantity: U-VELOCITY
    64 Coords:      0.381250      0.000000      0.006250, Make: null, ID: u_strm_bot, Quantity: U-VELOCITY
    65 Coords:      0.393750      0.000000      0.006250, Make: null, ID: u_strm_bot, Quantity: U-VELOCITY
    66 Coords:      0.406250      0.000000      0.006250, Make: null, ID: u_strm_bot, Quantity: U-VELOCITY
    67 Coords:      0.418750      0.000000      0.006250, Make: null, ID: u_strm_bot, Quantity: U-VELOCITY
    68 Coords:      0.431250      0.000000      0.006250, Make: null, ID: u_strm_bot, Quantity: U-VELOCITY
    69 Coords:      0.443750      0.000000      0.006250, Make: null, ID: u_strm_bot, Quantity: U-VELOCITY
    70 Coords:      0.456250      0.000000      0.006250, Make: null, ID: u_strm_bot, Quantity: U-VELOCITY
    71 Coords:      0.468750      0.000000      0.006250, Make: null, ID: u_strm_bot, Quantity: U-VELOCITY
    72 Coords:      0.481250      0.000000      0.006250, Make: null, ID: u_strm_bot, Quantity: U-VELOCITY
    73 Coords:      0.493750      0.000000      0.006250, Make: null, ID: u_strm_bot, Quantity: U-VELOCITY
    74 Coords:      0.506250      0.000000      0.006250, Make: null, ID: u_strm_bot, Quantity: U-VELOCITY
    75 Coords:      0.518750      0.000000      0.006250, Make: null, ID: u_strm_bot, Quantity: U-VELOCITY
    76 Coords:      0.531250      0.000000      0.006250, Make: null, ID: u_strm_bot, Quantity: U-VELOCITY
    77 Coords:      0.543750      0.000000      0.006250, Make: null, ID: u_strm_bot, Quantity: U-VELOCITY
    78 Coords:      0.556250      0.000000      0.006250, Make: null, ID: u_strm_bot, Quantity: U-VELOCITY
    79 Coords:      0.568750      0.000000      0.006250, Make: null, ID: u_strm_bot, Quantity: U-VELOCITY
    80 Coords:      0.581250      0.000000      0.006250, Make: null, ID: u_strm_bot, Quantity: U-VELOCITY
    81 Coords:      0.593750      0.000000      0.006250, Make: null, ID: u_strm_bot, Quantity: U-VELOCITY
    82 Coords:     -0.043750      0.000000      0.106250, Make: null, ID: u_strm_rib, Quantity: U-VELOCITY
    83 Coords:     -0.031250      0.000000      0.106250, Make: null, ID: u_strm_rib, Quantity: U-VELOCITY
    84 Coords:     -0.018750      0.000000      0.106250, Make: null, ID: u_strm_rib, Quantity: U-VELOCITY
    85 Coords:     -0.006250      0.000000      0.106250, Make: null, ID: u_strm_rib, Quantity: U-VELOCITY
    86 Coords:      0.006250      0.000000      0.106250, Make: null, ID: u_strm_rib, Quantity: U-VELOCITY
    87 Coords:      0.018750      0.000000      0.106250, Make: null, ID: u_strm_rib, Quantity: U-VELOCITY
    88 Coords:      0.031250      0.000000      0.106250, Make: null, ID: u_strm_rib, Quantity: U-VELOCITY
    89 Coords:      0.043750      0.000000      0.106250, Make: null, ID: u_strm_rib, Quantity: U-VELOCITY
    90 Coords:     -0.393750      0.000000      0.006250, Make: null, ID: mu_strm_bot, Quantity: VISCOSITY
    91 Coords:     -0.381250      0.000000      0.006250, Make: null, ID: mu_strm_bot, Quantity: VISCOSITY
    92 Coords:     -0.368750      0.000000      0.006250, Make: null, ID: mu_strm_bot, Quantity: VISCOSITY
    93 Coords:     -0.356250      0.000000      0.006250, Make: null, ID: mu_strm_bot, Quantity: VISCOSITY
    94 Coords:     -0.343750      0.000000      0.006250, Make: null, ID: mu_strm_bot, Quantity: VISCOSITY
    95 Coords:     -0.331250      0.000000      0.006250, Make: null, ID: mu_strm_bot, Quantity: VISCOSITY
    96 Coords:     -0.318750      0.000000      0.006250, Make: null, ID: mu_strm_bot, Quantity: VISCOSITY
    97 Coords:     -0.306250      0.000000      0.006250, Make: null, ID: mu_strm_bot, Quantity: VISCOSITY
    98 Coords:     -0.293750      0.000000      0.006250, Make: null, ID: mu_strm_bot, Quantity: VISCOSITY
    99 Coords:     -0.281250      0.000000      0.006250, Make: null, ID: mu_strm_bot, Quantity: VISCOSITY
   100 Coords:     -0.268750      0.000000      0.006250, Make: null, ID: mu_strm_bot, Quantity: VISCOSITY
   101 Coords:     -0.256250      0.000000      0.006250, Make: null, ID: mu_strm_bot, Quantity: VISCOSITY
   102 Coords:     -0.243750      0.000000      0.006250, Make: null, ID: mu_strm_bot, Quantity: VISCOSITY
   103 Coords:     -0.231250      0.000000      0.006250, Make: null, ID: mu_strm_bot, Quantity: VISCOSITY
   104 Coords:     -0.218750      0.000000      0.006250, Make: null, ID: mu_strm_bot, Quantity: VISCOSITY
   105 Coords:     -0.206250      0.000000      0.006250, Make: null, ID: mu_strm_bot, Quantity: VISCOSITY
   106 Coords:     -0.193750      0.000000      0.006250, Make: null, ID: mu_strm_bot, Quantity: VISCOSITY
   107 Coords:     -0.181250      0.000000      0.006250, Make: null, ID: mu_strm_bot, Quantity: VISCOSITY
   108 Coords:     -0.168750      0.000000      0.006250, Make: null, ID: mu_strm_bot, Quantity: VISCOSITY
   109 Coords:     -0.156250      0.000000      0.006250, Make: null, ID: mu_strm_bot, Quantity: VISCOSITY
   110 Coords:     -0.143750      0.000000      0.006250, Make: null, ID: mu_strm_bot, Quantity: VISCOSITY
   111 Coords:     -0.131250      0.000000      0.006250, Make: null, ID: mu_strm_bot, Quantity: VISCOSITY
   112 Coords:     -0.118750      0.000000      0.006250, Make: null, ID: mu_strm_bot, Quantity: VISCOSITY
   113 Coords:     -0.106250      0.000000      0.006250, Make: null, ID: mu_strm_bot, Quantity: VISCOSITY
   114 Coords:     -0.093750      0.000000      0.006250, Make: null, ID: mu_strm_bot, Quantity: VISCOSITY
   115 Coords:     -0.081250      0.000000      0.006250, Make: null, ID: mu_strm_bot, Quantity: VISCOSITY
   116 Coords:     -0.068750      0.000000      0.006250, Make: null, ID: mu_strm_bot, Quantity: VISCOSITY
   117 Coords:     -0.056250      0.000000      0.006250, Make: null, ID: mu_strm_bot, Quantity: VISCOSITY
   118 Coords:     -0.043750      0.000000      0.006250, Make: null, ID: mu_strm_bot, Quantity: VISCOSITY
   119 Coords:     -0.031250      0.000000      0.006250, Make: null, ID: mu_strm_bot, Quantity: VISCOSITY
   120 Coords:     -0.018750      0.000000      0.006250, Make: null, ID: mu_strm_bot, Quantity: VISCOSITY
   121 Coords:     -0.006250      0.000000      0.006250, Make: null, ID: mu_strm_bot, Quantity: VISCOSITY
   122 Coords:      0.006250      0.000000      0.006250, Make: null, ID: mu_strm_bot, Quantity: VISCOSITY
   123 Coords:      0.018750      0.000000      0.006250, Make: null, ID: mu_strm_bot, Quantity: VISCOSITY
   124 Coords:      0.031250      0.000000      0.006250, Make: null, ID: mu_strm_bot, Quantity: VISCOSITY
   125 Coords:      0.043750      0.000000      0.006250, Make: null, ID: mu_strm_bot, Quantity: VISCOSITY
   126 Coords:      0.056250      0.000000      0.006250, Make: null, ID: mu_strm_bot, Quantity: VISCOSITY
   127 Coords:      0.068750      0.000000      0.006250, Make: null, ID: mu_strm_bot, Quantity: VISCOSITY
   128 Coords:      0.081250      0.000000      0.006250, Make: null, ID: mu_strm_bot, Quantity: VISCOSITY
   129 Coords:      0.093750      0.000000      0.006250, Make: null, ID: mu_strm_bot, Quantity: VISCOSITY
   130 Coords:      0.106250      0.000000      0.006250, Make: null, ID: mu_strm_bot, Quantity: VISCOSITY
   131 Coords:      0.118750      0.000000      0.006250, Make: null, ID: mu_strm_bot, Quantity: VISCOSITY
   132 Coords:      0.131250      0.000000      0.006250, Make: null, ID: mu_strm_bot, Quantity: VISCOSITY
   133 Coords:      0.143750      0.000000      0.006250, Make: null, ID: mu_strm_bot, Quantity: VISCOSITY
   134 Coords:      0.156250      0.000000      0.006250, Make: null, ID: mu_strm_bot, Quantity: VISCOSITY
   135 Coords:      0.168750      0.000000      0.006250, Make: null, ID: mu_strm_bot, Quantity: VISCOSITY
   136 Coords:      0.181250      0.000000      0.006250, Make: null, ID: mu_strm_bot, Quantity: VISCOSITY
   137 Coords:      0.193750      0.000000      0.006250, Make: null, ID: mu_strm_bot, Quantity: VISCOSITY
   138 Coords:      0.206250      0.000000      0.006250, Make: null, ID: mu_strm_bot, Quantity: VISCOSITY
   139 Coords:      0.218750      0.000000      0.006250, Make: null, ID: mu_strm_bot, Quantity: VISCOSITY
   140 Coords:      0.231250      0.000000      0.006250, Make: null, ID: mu_strm_bot, Quantity: VISCOSITY
   141 Coords:      0.243750      0.000000      0.006250, Make: null, ID: mu_strm_bot, Quantity: VISCOSITY
   142 Coords:      0.256250      0.000000      0.006250, Make: null, ID: mu_strm_bot, Quantity: VISCOSITY
   143 Coords:      0.268750      0.000000      0.006250, Make: null, ID: mu_strm_bot, Quantity: VISCOSITY
   144 Coords:      0.281250      0.000000      0.006250, Make: null, ID: mu_strm_bot, Quantity: VISCOSITY
   145 Coords:      0.293750      0.000000      0.006250, Make: null, ID: mu_strm_bot, Quantity: VISCOSITY
   146 Coords:      0.306250      0.000000      0.006250, Make: null, ID: mu_strm_bot, Quantity: VISCOSITY
   147 Coords:      0.318750      0.000000      0.006250, Make: null, ID: mu_strm_bot, Quantity: VISCOSITY
   148 Coords:      0.331250      0.000000      0.006250, Make: null, ID: mu_strm_bot, Quantity: VISCOSITY
   149 Coords:      0.343750      0.000000      0.006250, Make: null, ID: mu_strm_bot, Quantity: VISCOSITY
   150 Coords:      0.356250      0.000000      0.006250, Make: null, ID: mu_strm_bot, Quantity: VISCOSITY
   151 Coords:      0.368750      0.000000      0.006250, Make: null, ID: mu_strm_bot, Quantity: VISCOSITY
   152 Coords:      0.381250      0.000000      0.006250, Make: null, ID: mu_strm_bot, Quantity: VISCOSITY
   153 Coords:      0.393750      0.000000      0.006250, Make: null, ID: mu_strm_bot, Quantity: VISCOSITY
   154 Coords:      0.406250      0.000000      0.006250, Make: null, ID: mu_strm_bot, Quantity: VISCOSITY
   155 Coords:      0.418750      0.000000      0.006250, Make: null, ID: mu_strm_bot, Quantity: VISCOSITY
   156 Coords:      0.431250      0.000000      0.006250, Make: null, ID: mu_strm_bot, Quantity: VISCOSITY
   157 Coords:      0.443750      0.000000      0.006250, Make: null, ID: mu_strm_bot, Quantity: VISCOSITY
   158 Coords:      0.456250      0.000000      0.006250, Make: null, ID: mu_strm_bot, Quantity: VISCOSITY
   159 Coords:      0.468750      0.000000      0.006250, Make: null, ID: mu_strm_bot, Quantity: VISCOSITY
   160 Coords:      0.481250      0.000000      0.006250, Make: null, ID: mu_strm_bot, Quantity: VISCOSITY
   161 Coords:      0.493750      0.000000      0.006250, Make: null, ID: mu_strm_bot, Quantity: VISCOSITY
   162 Coords:      0.506250      0.000000      0.006250, Make: null, ID: mu_strm_bot, Quantity: VISCOSITY
   163 Coords:      0.518750      0.000000      0.006250, Make: null, ID: mu_strm_bot, Quantity: VISCOSITY
   164 Coords:      0.531250      0.000000      0.006250, Make: null, ID: mu_strm_bot, Quantity: VISCOSITY
   165 Coords:      0.543750      0.000000      0.006250, Make: null, ID: mu_strm_bot, Quantity: VISCOSITY
   166 Coords:      0.556250      0.000000      0.006250, Make: null, ID: mu_strm_bot, Quantity: VISCOSITY
   167 Coords:      0.568750      0.000000      0.006250, Make: null, ID: mu_strm_bot, Quantity: VISCOSITY
   168 Coords:      0.581250      0.000000      0.006250, Make: null, ID: mu_strm_bot, Quantity: VISCOSITY
   169 Coords:      0.593750      0.000000      0.006250, Make: null, ID: mu_strm_bot, Quantity: VISCOSITY
   170 Coords:     -0.393750      0.000000      0.006250, Make: null, ID: urms_strm_bot, Quantity: U-VELOCITY
   171 Coords:     -0.381250      0.000000      0.006250, Make: null, ID: urms_strm_bot, Quantity: U-VELOCITY
   172 Coords:     -0.368750      0.000000      0.006250, Make: null, ID: urms_strm_bot, Quantity: U-VELOCITY
   173 Coords:     -0.356250      0.000000      0.006250, Make: null, ID: urms_strm_bot, Quantity: U-VELOCITY
   174 Coords:     -0.343750      0.000000      0.006250, Make: null, ID: urms_strm_bot, Quantity: U-VELOCITY
   175 Coords:     -0.331250      0.000000      0.006250, Make: null, ID: urms_strm_bot, Quantity: U-VELOCITY
   176 Coords:     -0.318750      0.000000      0.006250, Make: null, ID: urms_strm_bot, Quantity: U-VELOCITY
   177 Coords:     -0.306250      0.000000      0.006250, Make: null, ID: urms_strm_bot, Quantity: U-VELOCITY
   178 Coords:     -0.293750      0.000000      0.006250, Make: null, ID: urms_strm_bot, Quantity: U-VELOCITY
   179 Coords:     -0.281250      0.000000      0.006250, Make: null, ID: urms_strm_bot, Quantity: U-VELOCITY
   180 Coords:     -0.268750      0.000000      0.006250, Make: null, ID: urms_strm_bot, Quantity: U-VELOCITY
   181 Coords:     -0.256250      0.000000      0.006250, Make: null, ID: urms_strm_bot, Quantity: U-VELOCITY
   182 Coords:     -0.243750      0.000000      0.006250, Make: null, ID: urms_strm_bot, Quantity: U-VELOCITY
   183 Coords:     -0.231250      0.000000      0.006250, Make: null, ID: urms_strm_bot, Quantity: U-VELOCITY
   184 Coords:     -0.218750      0.000000      0.006250, Make: null, ID: urms_strm_bot, Quantity: U-VELOCITY
   185 Coords:     -0.206250      0.000000      0.006250, Make: null, ID: urms_strm_bot, Quantity: U-VELOCITY
   186 Coords:     -0.193750      0.000000      0.006250, Make: null, ID: urms_strm_bot, Quantity: U-VELOCITY
   187 Coords:     -0.181250      0.000000      0.006250, Make: null, ID: urms_strm_bot, Quantity: U-VELOCITY
   188 Coords:     -0.168750      0.000000      0.006250, Make: null, ID: urms_strm_bot, Quantity: U-VELOCITY
   189 Coords:     -0.156250      0.000000      0.006250, Make: null, ID: urms_strm_bot, Quantity: U-VELOCITY
   190 Coords:     -0.143750      0.000000      0.006250, Make: null, ID: urms_strm_bot, Quantity: U-VELOCITY
   191 Coords:     -0.131250      0.000000      0.006250, Make: null, ID: urms_strm_bot, Quantity: U-VELOCITY
   192 Coords:     -0.118750      0.000000      0.006250, Make: null, ID: urms_strm_bot, Quantity: U-VELOCITY
   193 Coords:     -0.106250      0.000000      0.006250, Make: null, ID: urms_strm_bot, Quantity: U-VELOCITY
   194 Coords:     -0.093750      0.000000      0.006250, Make: null, ID: urms_strm_bot, Quantity: U-VELOCITY
   195 Coords:     -0.081250      0.000000      0.006250, Make: null, ID: urms_strm_bot, Quantity: U-VELOCITY
   196 Coords:     -0.068750      0.000000      0.006250, Make: null, ID: urms_strm_bot, Quantity: U-VELOCITY
   197 Coords:     -0.056250      0.000000      0.006250, Make: null, ID: urms_strm_bot, Quantity: U-VELOCITY
   198 Coords:     -0.043750      0.000000      0.006250, Make: null, ID: urms_strm_bot, Quantity: U-VELOCITY
   199 Coords:     -0.031250      0.000000      0.006250, Make: null, ID: urms_strm_bot, Quantity: U-VELOCITY
   200 Coords:     -0.018750      0.000000      0.006250, Make: null, ID: urms_strm_bot, Quantity: U-VELOCITY
   201 Coords:     -0.006250      0.000000      0.006250, Make: null, ID: urms_strm_bot, Quantity: U-VELOCITY
   202 Coords:      0.006250      0.000000      0.006250, Make: null, ID: urms_strm_bot, Quantity: U-VELOCITY
   203 Coords:      0.018750      0.000000      0.006250, Make: null, ID: urms_strm_bot, Quantity: U-VELOCITY
   204 Coords:      0.031250      0.000000      0.006250, Make: null, ID: urms_strm_bot, Quantity: U-VELOCITY
   205 Coords:      0.043750      0.000000      0.006250, Make: null, ID: urms_strm_bot, Quantity: U-VELOCITY
   206 Coords:      0.056250      0.000000      0.006250, Make: null, ID: urms_strm_bot, Quantity: U-VELOCITY
   207 Coords:      0.068750      0.000000      0.006250, Make: null, ID: urms_strm_bot, Quantity: U-VELOCITY
   208 Coords:      0.081250      0.000000      0.006250, Make: null, ID: urms_strm_bot, Quantity: U-VELOCITY
   209 Coords:      0.093750      0.000000      0.006250, Make: null, ID: urms_strm_bot, Quantity: U-VELOCITY
   210 Coords:      0.106250      0.000000      0.006250, Make: null, ID: urms_strm_bot, Quantity: U-VELOCITY
   211 Coords:      0.118750      0.000000      0.006250, Make: null, ID: urms_strm_bot, Quantity: U-VELOCITY
   212 Coords:      0.131250      0.000000      0.006250, Make: null, ID: urms_strm_bot, Quantity: U-VELOCITY
   213 Coords:      0.143750      0.000000      0.006250, Make: null, ID: urms_strm_bot, Quantity: U-VELOCITY
   214 Coords:      0.156250      0.000000      0.006250, Make: null, ID: urms_strm_bot, Quantity: U-VELOCITY
   215 Coords:      0.168750      0.000000      0.006250, Make: null, ID: urms_strm_bot, Quantity: U-VELOCITY
   216 Coords:      0.181250      0.000000      0.006250, Make: null, ID: urms_strm_bot, Quantity: U-VELOCITY
   217 Coords:      0.193750      0.000000      0.006250, Make: null, ID: urms_strm_bot, Quantity: U-VELOCITY
   218 Coords:      0.206250      0.000000      0.006250, Make: null, ID: urms_strm_bot, Quantity: U-VELOCITY
   219 Coords:      0.218750      0.000000      0.006250, Make: null, ID: urms_strm_bot, Quantity: U-VELOCITY
   220 Coords:      0.231250      0.000000      0.006250, Make: null, ID: urms_strm_bot, Quantity: U-VELOCITY
   221 Coords:      0.243750      0.000000      0.006250, Make: null, ID: urms_strm_bot, Quantity: U-VELOCITY
   222 Coords:      0.256250      0.000000      0.006250, Make: null, ID: urms_strm_bot, Quantity: U-VELOCITY
   223 Coords:      0.268750      0.000000      0.006250, Make: null, ID: urms_strm_bot, Quantity: U-VELOCITY
   224 Coords:      0.281250      0.000000      0.006250, Make: null, ID: urms_strm_bot, Quantity: U-VELOCITY
   225 Coords:      0.293750      0.000000      0.006250, Make: null, ID: urms_strm_bot, Quantity: U-VELOCITY
   226 Coords:      0.306250      0.000000      0.006250, Make: null, ID: urms_strm_bot, Quantity: U-VELOCITY
   227 Coords:      0.318750      0.000000      0.006250, Make: null, ID: urms_strm_bot, Quantity: U-VELOCITY
   228 Coords:      0.331250      0.000000      0.006250, Make: null, ID: urms_strm_bot, Quantity: U-VELOCITY
   229 Coords:      0.343750      0.000000      0.006250, Make: null, ID: urms_strm_bot, Quantity: U-VELOCITY
   230 Coords:      0.356250      0.000000      0.006250, Make: null, ID: urms_strm_bot, Quantity: U-VELOCITY
   231 Coords:      0.368750      0.000000      0.006250, Make: null, ID: urms_strm_bot, Quantity: U-VELOCITY
   232 Coords:      0.381250      0.000000      0.006250, Make: null, ID: urms_strm_bot, Quantity: U-VELOCITY
   233 Coords:      0.393750      0.000000      0.006250, Make: null, ID: urms_strm_bot, Quantity: U-VELOCITY
   234 Coords:      0.406250      0.000000      0.006250, Make: null, ID: urms_strm_bot, Quantity: U-VELOCITY
   235 Coords:      0.418750      0.000000      0.006250, Make: null, ID: urms_strm_bot, Quantity: U-VELOCITY
   236 Coords:      0.431250      0.000000      0.006250, Make: null, ID: urms_strm_bot, Quantity: U-VELOCITY
   237 Coords:      0.443750      0.000000      0.006250, Make: null, ID: urms_strm_bot, Quantity: U-VELOCITY
   238 Coords:      0.456250      0.000000      0.006250, Make: null, ID: urms_strm_bot, Quantity: U-VELOCITY
   239 Coords:      0.468750      0.000000      0.006250, Make: null, ID: urms_strm_bot, Quantity: U-VELOCITY
   240 Coords:      0.481250      0.000000      0.006250, Make: null, ID: urms_strm_bot, Quantity: U-VELOCITY
   241 Coords:      0.493750      0.000000      0.006250, Make: null, ID: urms_strm_bot, Quantity: U-VELOCITY
   242 Coords:      0.506250      0.000000      0.006250, Make: null, ID: urms_strm_bot, Quantity: U-VELOCITY
   243 Coords:      0.518750      0.000000      0.006250, Make: null, ID: urms_strm_bot, Quantity: U-VELOCITY
   244 Coords:      0.531250      0.000000      0.006250, Make: null, ID: urms_strm_bot, Quantity: U-VELOCITY
   245 Coords:      0.543750      0.000000      0.006250, Make: null, ID: urms_strm_bot, Quantity: U-VELOCITY
   246 Coords:      0.556250      0.000000      0.006250, Make: null, ID: urms_strm_bot, Quantity: U-VELOCITY
   247 Coords:      0.568750      0.000000      0.006250, Make: null, ID: urms_strm_bot, Quantity: U-VELOCITY
   248 Coords:      0.581250      0.000000      0.006250, Make: null, ID: urms_strm_bot, Quantity: U-VELOCITY
   249 Coords:      0.593750      0.000000      0.006250, Make: null, ID: urms_strm_bot, Quantity: U-VELOCITY
   250 Coords:     -0.043750      0.000000      0.106250, Make: null, ID: urms_strm_rib, Quantity: U-VELOCITY
   251 Coords:     -0.031250      0.000000      0.106250, Make: null, ID: urms_strm_rib, Quantity: U-VELOCITY
   252 Coords:     -0.018750      0.000000      0.106250, Make: null, ID: urms_strm_rib, Quantity: U-VELOCITY
   253 Coords:     -0.006250      0.000000      0.106250, Make: null, ID: urms_strm_rib, Quantity: U-VELOCITY
   254 Coords:      0.006250      0.000000      0.106250, Make: null, ID: urms_strm_rib, Quantity: U-VELOCITY
   255 Coords:      0.018750      0.000000      0.106250, Make: null, ID: urms_strm_rib, Quantity: U-VELOCITY
   256 Coords:      0.031250      0.000000      0.106250, Make: null, ID: urms_strm_rib, Quantity: U-VELOCITY
   257 Coords:      0.043750      0.000000      0.106250, Make: null, ID: urms_strm_rib, Quantity: U-VELOCITY
   258 Coords:      0.000000      0.000000      0.106250, Make: null, ID: u_prof_rib, Quantity: U-VELOCITY
   259 Coords:      0.000000      0.000000      0.118750, Make: null, ID: u_prof_rib, Quantity: U-VELOCITY
   260 Coords:      0.000000      0.000000      0.131250, Make: null, ID: u_prof_rib, Quantity: U-VELOCITY
   261 Coords:      0.000000      0.000000      0.143750, Make: null, ID: u_prof_rib, Quantity: U-VELOCITY
   262 Coords:      0.000000      0.000000      0.156250, Make: null, ID: u_prof_rib, Quantity: U-VELOCITY
   263 Coords:      0.000000      0.000000      0.168750, Make: null, ID: u_prof_rib, Quantity: U-VELOCITY
   264 Coords:      0.000000      0.000000      0.181250, Make: null, ID: u_prof_rib, Quantity: U-VELOCITY
   265 Coords:      0.000000      0.000000      0.193750, Make: null, ID: u_prof_rib, Quantity: U-VELOCITY
   266 Coords:      0.000000      0.000000      0.206250, Make: null, ID: u_prof_rib, Quantity: U-VELOCITY
   267 Coords:      0.000000      0.000000      0.218750, Make: null, ID: u_prof_rib, Quantity: U-VELOCITY
   268 Coords:      0.000000      0.000000      0.231250, Make: null, ID: u_prof_rib, Quantity: U-VELOCITY
   269 Coords:      0.000000      0.000000      0.243750, Make: null, ID: u_prof_rib, Quantity: U-VELOCITY
   270 Coords:      0.000000      0.000000      0.256250, Make: null, ID: u_prof_rib, Quantity: U-VELOCITY
   271 Coords:      0.000000      0.000000      0.268750, Make: null, ID: u_prof_rib, Quantity: U-VELOCITY
   272 Coords:      0.000000      0.000000      0.281250, Make: null, ID: u_prof_rib, Quantity: U-VELOCITY
   273 Coords:      0.000000      0.000000      0.293750, Make: null, ID: u_prof_rib, Quantity: U-VELOCITY
   274 Coords:      0.000000      0.000000      0.106250, Make: null, ID: urms_prof_rib, Quantity: U-VELOCITY
   275 Coords:      0.000000      0.000000      0.118750, Make: null, ID: urms_prof_rib, Quantity: U-VELOCITY
   276 Coords:      0.000000      0.000000      0.131250, Make: null, ID: urms_prof_rib, Quantity: U-VELOCITY
   277 Coords:      0.000000      0.000000      0.143750, Make: null, ID: urms_prof_rib, Quantity: U-VELOCITY
   278 Coords:      0.000000      0.000000      0.156250, Make: null, ID: urms_prof_rib, Quantity: U-VELOCITY
   279 Coords:      0.000000      0.000000      0.168750, Make: null, ID: urms_prof_rib, Quantity: U-VELOCITY
   280 Coords:      0.000000      0.000000      0.181250, Make: null, ID: urms_prof_rib, Quantity: U-VELOCITY
   281 Coords:      0.000000      0.000000      0.193750, Make: null, ID: urms_prof_rib, Quantity: U-VELOCITY
   282 Coords:      0.000000      0.000000      0.206250, Make: null, ID: urms_prof_rib, Quantity: U-VELOCITY
   283 Coords:      0.000000      0.000000      0.218750, Make: null, ID: urms_prof_rib, Quantity: U-VELOCITY
   284 Coords:      0.000000      0.000000      0.231250, Make: null, ID: urms_prof_rib, Quantity: U-VELOCITY
   285 Coords:      0.000000      0.000000      0.243750, Make: null, ID: urms_prof_rib, Quantity: U-VELOCITY
   286 Coords:      0.000000      0.000000      0.256250, Make: null, ID: urms_prof_rib, Quantity: U-VELOCITY
   287 Coords:      0.000000      0.000000      0.268750, Make: null, ID: urms_prof_rib, Quantity: U-VELOCITY
   288 Coords:      0.000000      0.000000      0.281250, Make: null, ID: urms_prof_rib, Quantity: U-VELOCITY
   289 Coords:      0.000000      0.000000      0.293750, Make: null, ID: urms_prof_rib, Quantity: U-VELOCITY
   290 Coords:      0.000000      0.000000      0.106250, Make: null, ID: mu_prof_rib, Quantity: VISCOSITY
   291 Coords:      0.000000      0.000000      0.118750, Make: null, ID: mu_prof_rib, Quantity: VISCOSITY
   292 Coords:      0.000000      0.000000      0.131250, Make: null, ID: mu_prof_rib, Quantity: VISCOSITY
   293 Coords:      0.000000      0.000000      0.143750, Make: null, ID: mu_prof_rib, Quantity: VISCOSITY
   294 Coords:      0.000000      0.000000      0.156250, Make: null, ID: mu_prof_rib, Quantity: VISCOSITY
   295 Coords:      0.000000      0.000000      0.168750, Make: null, ID: mu_prof_rib, Quantity: VISCOSITY
   296 Coords:      0.000000      0.000000      0.181250, Make: null, ID: mu_prof_rib, Quantity: VISCOSITY
   297 Coords:      0.000000      0.000000      0.193750, Make: null, ID: mu_prof_rib, Quantity: VISCOSITY
   298 Coords:      0.000000      0.000000      0.206250, Make: null, ID: mu_prof_rib, Quantity: VISCOSITY
   299 Coords:      0.000000      0.000000      0.218750, Make: null, ID: mu_prof_rib, Quantity: VISCOSITY
   300 Coords:      0.000000      0.000000      0.231250, Make: null, ID: mu_prof_rib, Quantity: VISCOSITY
   301 Coords:      0.000000      0.000000      0.243750, Make: null, ID: mu_prof_rib, Quantity: VISCOSITY
   302 Coords:      0.000000      0.000000      0.256250, Make: null, ID: mu_prof_rib, Quantity: VISCOSITY
   303 Coords:      0.000000      0.000000      0.268750, Make: null, ID: mu_prof_rib, Quantity: VISCOSITY
   304 Coords:      0.000000      0.000000      0.281250, Make: null, ID: mu_prof_rib, Quantity: VISCOSITY
   305 Coords:      0.000000      0.000000      0.293750, Make: null, ID: mu_prof_rib, Quantity: VISCOSITY


 Slice File Information, Mesh     1

   Sampling Interval (s)             0.100

   1 Nodes:   0  20  13  13   0  24, Quantity: PRESSURE
   2 Nodes:   0  20  13  13   0  24, Quantity: VISCOSITY
   3 Nodes:   0  20  12  12   0  24, Quantity: VELOCITY
   4 Nodes:   0  20  12  12   0  24, Quantity: U-VELOCITY
   5 Nodes:   0  20  12  12   0  24, Quantity: V-VELOCITY
   6 Nodes:   0  20  12  12   0  24, Quantity: W-VELOCITY


 Boundary File Information

   Sampling Interval (s)             0.200

   1 Quantity: VISCOUS WALL UNITS
   2 Quantity: FRICTION VELOCITY


 SCARC Information

   Discretization             STRUCTURED
   Global solver                  KRYLOV
   Storage technique             COMPACT
   Preconditioner                PARDISO
   MKL precision                  DOUBLE
   Max iterations                   1000
   Stopping accuracy            0.10E-07
 
 

 Run Time Diagnostics

       Time Step       1   June 26, 2020  16:19:53
       Step Size:    0.943E-02 s, Total Time:      0.009 s
       Pressure Iterations:      4
       Maximum Velocity Error:  0.48E-02 on Mesh   2 at (  16   7   8)
       Maximum Pressure Error:  0.15E-03 on Mesh   4 at (  20  24  24)
       ScaRC: iterations    83, residual  0.87E-08, convergence rate   0.67E+00
       ---------------------------------------------------------------
       Mesh    1
       Max CFL number:  0.80E+00 at (  18,  10,  19)
       Max divergence:  0.58E-10 at (   1,   1,  16)
       Min divergence: -0.22E-09 at (   3,  20,  24)
       Max VN number:   0.11E+00 at (  11,  24,   1)
       Mesh    2
       Max CFL number:  0.88E+00 at (   8,   8,   8)
       Max divergence:  0.82E-10 at (   3,   1,  12)
       Min divergence: -0.12E-09 at (   8,  19,  24)
       Max VN number:   0.11E+00 at (   8,  24,  24)
       Mesh    3
       Max CFL number:  0.81E+00 at (   4,   9,  19)
       Max divergence:  0.79E-10 at (   6,  24,  22)
       Min divergence: -0.13E-09 at (  15,   3,  24)
       Max VN number:   0.11E+00 at (  14,  24,   1)
       Mesh    4
       Max CFL number:  0.80E+00 at (   7,  21,  23)
       Max divergence:  0.72E-06 at (  20,  24,  24)
       Min divergence: -0.18E-09 at (  15,  10,  24)
       Max div. error:  0.72E-06 at (  20,  24,  24)
       Max VN number:   0.11E+00 at (  15,  24,   1)
 
       Time Step       2   June 26, 2020  16:20:03
       Step Size:    0.838E-02 s, Total Time:       0.02 s
       Pressure Iterations:      6
       Maximum Velocity Error:  0.50E-02 on Mesh   2 at (  16  13   1)
       Maximum Pressure Error:  0.22E-03 on Mesh   4 at (  20  24  24)
       ScaRC: iterations    85, residual  0.54E-08, convergence rate   0.67E+00
       ---------------------------------------------------------------
       Mesh    1
       Max CFL number:  0.77E+00 at (  18,  10,  19)
       Max divergence:  0.96E-08 at (   2,  24,  24)
       Min divergence: -0.16E-07 at (   1,  24,  24)
       Max VN number:   0.94E-01 at (  11,  24,   1)
       Mesh    2
       Max CFL number:  0.89E+00 at (   7,   8,   8)
       Max divergence:  0.81E-10 at (   3,  23,  16)
       Min divergence: -0.13E-09 at (   8,  14,  24)
       Max VN number:   0.94E-01 at (   8,  24,  24)
       Mesh    3
       Max CFL number:  0.78E+00 at (   1,  17,  18)
       Max divergence:  0.77E-10 at (  16,  24,  16)
       Min divergence: -0.13E-09 at (  15,  21,  24)
       Max VN number:   0.94E-01 at (   4,   1,  24)
       Mesh    4
       Max CFL number:  0.76E+00 at (  12,   7,  17)
       Max divergence:  0.76E-06 at (  20,  24,  24)
       Min divergence: -0.19E-09 at (  15,  10,  24)
       Max div. error:  0.83E-06 at (  20,  24,  24)
       Max VN number:   0.94E-01 at (  15,  24,   1)
 
       Time Step       3   June 26, 2020  16:20:10
       Step Size:    0.838E-02 s, Total Time:       0.03 s
       Pressure Iterations:      5
       Maximum Velocity Error:  0.57E-02 on Mesh   2 at (  16   1   1)
       Maximum Pressure Error:  0.22E-03 on Mesh   4 at (  20  24  24)
       ScaRC: iterations    85, residual  0.58E-08, convergence rate   0.67E+00
       ---------------------------------------------------------------
       Mesh    1
       Max CFL number:  0.77E+00 at (  20,  15,  20)
       Max divergence:  0.17E-07 at (   1,  24,  23)
       Min divergence: -0.37E-07 at (   1,  24,  24)
       Max VN number:   0.11E+00 at (  20,  24,  24)
       Mesh    2
       Max CFL number:  0.96E+00 at (   7,   5,   8)
       Max divergence:  0.89E-10 at (   6,  23,  22)
       Min divergence: -0.14E-09 at (  14,   7,  24)
       Max VN number:   0.11E+00 at (   8,  24,   9)
       Mesh    3
       Max CFL number:  0.79E+00 at (   1,   3,  11)
       Max divergence:  0.82E-10 at (  20,  24,  16)
       Min divergence: -0.15E-09 at (  15,  21,  24)
       Max VN number:   0.11E+00 at (   1,   1,  24)
       Mesh    4
       Max CFL number:  0.77E+00 at (  13,  19,  17)
       Max divergence:  0.83E-06 at (  20,  24,  24)
       Min divergence: -0.23E-09 at (   8,  20,  24)
       Max div. error:  0.97E-06 at (  20,  24,  24)
       Max VN number:   0.10E+00 at (   5,  24,  24)
 
       Time Step       4   June 26, 2020  16:20:14
       Step Size:    0.838E-02 s, Total Time:       0.03 s
       Pressure Iterations:      3
       Maximum Velocity Error:  0.41E-02 on Mesh   2 at (  16  24   1)
       Maximum Pressure Error:  0.25E-03 on Mesh   4 at (  20  24  24)
       ScaRC: iterations    84, residual  0.91E-08, convergence rate   0.67E+00
       ---------------------------------------------------------------
       Mesh    1
       Max CFL number:  0.76E+00 at (  20,  10,  19)
       Max divergence:  0.21E-07 at (   1,  23,  24)
       Min divergence: -0.65E-07 at (   2,  24,  24)
       Max VN number:   0.10E+00 at (  20,  24,  24)
       Mesh    2
       Max CFL number:  0.10E+01 at (   8,  14,   8)
       Max divergence:  0.88E-10 at (   6,  23,  22)
       Min divergence: -0.15E-09 at (   1,  21,  24)
       Max VN number:   0.12E+00 at (   7,  24,   8)
       Mesh    3
       Max CFL number:  0.80E+00 at (   1,  11,  10)
       Max divergence:  0.85E-10 at (  20,  23,  16)
       Min divergence: -0.17E-09 at (  18,  20,  24)
       Max VN number:   0.11E+00 at (   1,   1,  24)
       Mesh    4
       Max CFL number:  0.76E+00 at (  13,  19,  17)
       Max divergence:  0.87E-06 at (  20,  24,  24)
       Min divergence: -0.23E-09 at (   3,  20,  24)
       Max div. error:  0.11E-05 at (  20,  24,  24)
       Max VN number:   0.10E+00 at (   1,   1,  24)
 
       Time Step       5   June 26, 2020  16:20:17
       Step Size:    0.838E-02 s, Total Time:       0.04 s
       Pressure Iterations:      2
       Maximum Velocity Error:  0.43E-02 on Mesh   2 at (  10  21   8)
       Maximum Pressure Error:  0.27E-03 on Mesh   4 at (  20  24  24)
       ScaRC: iterations    84, residual  0.99E-08, convergence rate   0.67E+00
       ---------------------------------------------------------------
       Mesh    1
       Max CFL number:  0.76E+00 at (  18,  14,  22)
       Max divergence:  0.28E-07 at (   2,  23,  24)
       Min divergence: -0.92E-07 at (   2,  24,  24)
       Max VN number:   0.10E+00 at (  20,  24,  24)
       Mesh    2
       Max CFL number:  0.99E+00 at (   7,  14,   8)
       Max divergence:  0.92E-10 at (   6,  24,  17)
       Min divergence: -0.17E-09 at (   1,  21,  24)
       Max VN number:   0.14E+00 at (   7,  24,   8)
       Mesh    3
       Max CFL number:  0.83E+00 at (   1,   6,   9)
       Max divergence:  0.10E-09 at (   6,  24,  17)
       Min divergence: -0.18E-09 at (  18,  20,  24)
       Max VN number:   0.11E+00 at (   2,   1,  24)
       Mesh    4
       Max CFL number:  0.75E+00 at (  13,   3,  21)
       Max divergence:  0.91E-06 at (  20,  24,  24)
       Min divergence: -0.25E-09 at (   8,   3,  24)
       Max div. error:  0.11E-05 at (  20,  24,  24)
       Max VN number:   0.10E+00 at (   1,   1,  24)
 
       Time Step       6   June 26, 2020  16:20:21
       Step Size:    0.838E-02 s, Total Time:       0.05 s
       Pressure Iterations:      2
       Maximum Velocity Error:  0.32E-02 on Mesh   2 at (  11  21   8)
       Maximum Pressure Error:  0.29E-03 on Mesh   4 at (  20  24  24)
       ScaRC: iterations    85, residual  0.67E-08, convergence rate   0.67E+00
       ---------------------------------------------------------------
       Mesh    1
       Max CFL number:  0.75E+00 at (  15,  21,  20)
       Max divergence:  0.31E-07 at (   1,  24,  23)
       Min divergence: -0.95E-07 at (   2,  24,  24)
       Max VN number:   0.10E+00 at (  20,  24,  24)
       Mesh    2
       Max CFL number:  0.96E+00 at (   7,  14,   8)
       Max divergence:  0.11E-09 at (  16,  17,  22)
       Min divergence: -0.19E-09 at (   1,   3,  24)
       Max VN number:   0.15E+00 at (   7,  19,   9)
       Mesh    3
       Max CFL number:  0.88E+00 at (   1,   6,   9)
       Max divergence:  0.13E-09 at (  17,  23,  16)
       Min divergence: -0.20E-09 at (  15,  21,  24)
       Max VN number:   0.10E+00 at (   2,   1,  24)
       Mesh    4
       Max CFL number:  0.75E+00 at (  18,   5,  20)
       Max divergence:  0.97E-06 at (  20,  24,  24)
       Min divergence: -0.30E-09 at (   3,  20,  24)
       Max div. error:  0.12E-05 at (  20,  24,  24)
       Max VN number:   0.10E+00 at (   1,   1,  24)
 
       Time Step       7   June 26, 2020  16:20:23
       Step Size:    0.838E-02 s, Total Time:       0.06 s
       Pressure Iterations:      2
       Maximum Velocity Error:  0.61E-02 on Mesh   2 at (   9  15   8)
       Maximum Pressure Error:  0.32E-03 on Mesh   4 at (  20  24  24)
       ScaRC: iterations    85, residual  0.70E-08, convergence rate   0.67E+00
       ---------------------------------------------------------------
       Mesh    1
       Max CFL number:  0.75E+00 at (  20,  14,  22)
       Max divergence:  0.36E-07 at (   1,  24,  23)
       Min divergence: -0.11E-06 at (   2,  24,  24)
       Max VN number:   0.99E-01 at (  19,  24,  24)
       Mesh    2
       Max CFL number:  0.94E+00 at (   7,  14,   8)
       Max divergence:  0.13E-09 at (  20,  24,  16)
       Min divergence: -0.21E-09 at (   1,   2,  24)
       Max VN number:   0.16E+00 at (   7,  19,   9)
       Mesh    3
       Max CFL number:  0.90E+00 at (   1,   5,   9)
       Max divergence:  0.14E-09 at (   1,  17,  22)
       Min divergence: -0.22E-09 at (  15,  10,  24)
       Max VN number:   0.10E+00 at (   2,   1,  24)
       Mesh    4
       Max CFL number:  0.75E+00 at (   1,  22,  17)
       Max divergence:  0.11E-05 at (  20,  24,  24)
       Min divergence: -0.33E-09 at (  15,  21,  24)
       Max div. error:  0.13E-05 at (  20,  24,  24)
       Max VN number:   0.98E-01 at (   2,   1,  24)
 
       Time Step       8   June 26, 2020  16:20:26
       Step Size:    0.838E-02 s, Total Time:       0.07 s
       Pressure Iterations:      2
       Maximum Velocity Error:  0.46E-02 on Mesh   2 at (   9  23   8)
       Maximum Pressure Error:  0.35E-03 on Mesh   4 at (  20  24  24)
       ScaRC: iterations    85, residual  0.76E-08, convergence rate   0.67E+00
       ---------------------------------------------------------------
       Mesh    1
       Max CFL number:  0.75E+00 at (  20,  14,  22)
       Max divergence:  0.40E-07 at (   1,  24,  23)
       Min divergence: -0.12E-06 at (   2,  24,  24)
       Max VN number:   0.98E-01 at (  20,  24,  24)
       Mesh    2
       Max CFL number:  0.94E+00 at (   7,  14,   8)
       Max divergence:  0.13E-09 at (  20,  24,  17)
       Min divergence: -0.22E-09 at (   1,   3,  24)
       Max VN number:   0.16E+00 at (   7,  15,   9)
       Mesh    3
       Max CFL number:  0.88E+00 at (   1,   6,   9)
       Max divergence:  0.15E-09 at (   6,  23,  22)
       Min divergence: -0.21E-09 at (  18,  15,  24)
       Max VN number:   0.10E+00 at (   1,  24,  24)
       Mesh    4
       Max CFL number:  0.74E+00 at (   1,  22,  17)
       Max divergence:  0.12E-05 at (  20,  24,  24)
       Min divergence: -0.32E-09 at (   8,   5,  24)
       Max div. error:  0.15E-05 at (  20,  24,  24)
       Max VN number:   0.96E-01 at (   2,   1,  24)
 
       Time Step       9   June 26, 2020  16:20:29
       Step Size:    0.838E-02 s, Total Time:       0.08 s
       Pressure Iterations:      2
       Maximum Velocity Error:  0.30E-02 on Mesh   2 at (  16  17   8)
       Maximum Pressure Error:  0.39E-03 on Mesh   4 at (  20  24  24)
       ScaRC: iterations    85, residual  0.81E-08, convergence rate   0.67E+00
       ---------------------------------------------------------------
       Mesh    1
       Max CFL number:  0.74E+00 at (  20,   4,  22)
       Max divergence:  0.45E-07 at (   1,  24,  23)
       Min divergence: -0.13E-06 at (   2,  24,  24)
       Max VN number:   0.96E-01 at (  20,  24,  24)
       Mesh    2
       Max CFL number:  0.95E+00 at (   8,   3,   8)
       Max divergence:  0.15E-09 at (  12,  17,  16)
       Min divergence: -0.22E-09 at (   1,  20,  24)
       Max VN number:   0.15E+00 at (   7,  13,   9)
       Mesh    3
       Max CFL number:  0.90E+00 at (   1,  15,  10)
       Max divergence:  0.16E-09 at (  19,  23,  16)
       Min divergence: -0.25E-09 at (  18,  10,  24)
       Max VN number:   0.10E+00 at (   1,  24,  24)
       Mesh    4
       Max CFL number:  0.74E+00 at (   1,   2,  22)
       Max divergence:  0.13E-05 at (  20,  24,  24)
       Min divergence: -0.36E-09 at (   8,   9,  24)
       Max div. error:  0.16E-05 at (  20,  24,  24)
       Max VN number:   0.95E-01 at (   2,   1,  24)
 
       Time Step      10   June 26, 2020  16:20:31
       Step Size:    0.838E-02 s, Total Time:       0.08 s
       Pressure Iterations:      2
       Maximum Velocity Error:  0.30E-02 on Mesh   2 at (   9  15   8)
       Maximum Pressure Error:  0.42E-03 on Mesh   4 at (  20  24  24)
       ScaRC: iterations    85, residual  0.83E-08, convergence rate   0.67E+00
       ---------------------------------------------------------------
       Mesh    1
       Max CFL number:  0.74E+00 at (  20,   9,   9)
       Max divergence:  0.50E-07 at (   1,  23,  24)
       Min divergence: -0.14E-06 at (   2,  24,  24)
       Max VN number:   0.95E-01 at (  20,  24,  24)
       Mesh    2
       Max CFL number:  0.96E+00 at (   7,   5,   8)
       Max divergence:  0.15E-09 at (   3,  23,  16)
       Min divergence: -0.23E-09 at (  13,   7,  24)
       Max VN number:   0.14E+00 at (   7,  13,   9)
       Mesh    3
       Max CFL number:  0.92E+00 at (   1,   9,  10)
       Max divergence:  0.16E-09 at (  17,  24,  16)
       Min divergence: -0.28E-09 at (  18,  14,  24)
       Max VN number:   0.10E+00 at (   1,  24,  24)
       Mesh    4
       Max CFL number:  0.74E+00 at (   2,   8,  22)
       Max divergence:  0.14E-05 at (  20,  24,  24)
       Min divergence: -0.37E-09 at (   3,  21,  24)
       Max div. error:  0.17E-05 at (  20,  24,  24)
       Max VN number:   0.93E-01 at (   1,  24,  24)
 
       Time Step      20   June 26, 2020  16:20:56
       Step Size:    0.838E-02 s, Total Time:       0.17 s
       Pressure Iterations:      1
       Maximum Velocity Error:  0.55E-02 on Mesh   2 at (   9   3   5)
       Maximum Pressure Error:  0.64E-03 on Mesh   4 at (  20  24  24)
       ScaRC: iterations    87, residual  0.64E-08, convergence rate   0.67E+00
       ---------------------------------------------------------------
       Mesh    1
       Max CFL number:  0.77E+00 at (  17,  14,   8)
       Max divergence:  0.95E-07 at (   1,  23,  24)
       Min divergence: -0.25E-06 at (   2,  24,  24)
       Max VN number:   0.88E-01 at (  19,  14,   9)
       Mesh    2
       Max CFL number:  0.93E+00 at (   7,  23,   8)
       Max divergence:  0.24E-09 at (   3,  13,  16)
       Min divergence: -0.35E-09 at (   8,   6,  24)
       Max VN number:   0.15E+00 at (   7,   6,   9)
       Mesh    3
       Max CFL number:  0.91E+00 at (   7,  12,  10)
       Max divergence:  0.27E-09 at (   3,  16,  16)
       Min divergence: -0.35E-09 at (  15,  10,  24)
       Max VN number:   0.95E-01 at (   2,  24,  24)
       Mesh    4
       Max CFL number:  0.73E+00 at (   2,   3,  21)
       Max divergence:  0.22E-05 at (  20,  24,  24)
       Min divergence: -0.57E-09 at (   3,  20,  24)
       Max div. error:  0.27E-05 at (  20,  24,  24)
       Max VN number:   0.85E-01 at (   1,  24,  24)
 
       Time Step      30   June 26, 2020  16:21:19
       Step Size:    0.838E-02 s, Total Time:       0.25 s
       Pressure Iterations:      2
       Maximum Velocity Error:  0.22E-02 on Mesh   2 at (   9   9   8)
       Maximum Pressure Error:  0.73E-03 on Mesh   4 at (  20  24  24)
       ScaRC: iterations    86, residual  0.97E-08, convergence rate   0.67E+00
       ---------------------------------------------------------------
       Mesh    1
       Max CFL number:  0.76E+00 at (  20,  14,  10)
       Max divergence:  0.11E-06 at (   1,  24,  23)
       Min divergence: -0.29E-06 at (   2,  24,  24)
       Max VN number:   0.88E-01 at (  20,  11,   9)
       Mesh    2
       Max CFL number:  0.93E+00 at (   8,  23,   8)
       Max divergence:  0.24E-08 at (   1,  24,  24)
       Min divergence: -0.14E-08 at (   8,  18,   9)
       Max VN number:   0.17E+00 at (   7,  11,   9)
       Mesh    3
       Max CFL number:  0.89E+00 at (  13,   8,  10)
       Max divergence:  0.28E-09 at (  11,  23,  22)
       Min divergence: -0.37E-09 at (  18,   4,  24)
       Max VN number:   0.94E-01 at (   2,  24,  24)
       Mesh    4
       Max CFL number:  0.75E+00 at (   1,  13,  19)
       Max divergence:  0.25E-05 at (  20,  24,  24)
       Min divergence: -0.56E-09 at (   3,  10,  24)
       Max div. error:  0.30E-05 at (  20,  24,  24)
       Max VN number:   0.81E-01 at (   1,  24,  24)
 
       Time Step      40   June 26, 2020  16:21:45
       Step Size:    0.838E-02 s, Total Time:       0.34 s
       Pressure Iterations:      2
       Maximum Velocity Error:  0.30E-02 on Mesh   2 at (   9  15   8)
       Maximum Pressure Error:  0.82E-03 on Mesh   4 at (  20  24  24)
       ScaRC: iterations    87, residual  0.82E-08, convergence rate   0.67E+00
       ---------------------------------------------------------------
       Mesh    1
       Max CFL number:  0.76E+00 at (  19,   3,   8)
       Max divergence:  0.13E-06 at (   1,  23,  24)
       Min divergence: -0.33E-06 at (   2,  24,  24)
       Max VN number:   0.94E-01 at (  20,  11,   9)
       Mesh    2
       Max CFL number:  0.94E+00 at (   9,  22,  10)
       Max divergence:  0.61E-08 at (   8,  17,   9)
       Min divergence: -0.14E-07 at (   1,  24,  24)
       Max VN number:   0.19E+00 at (   7,  17,   9)
       Mesh    3
       Max CFL number:  0.92E+00 at (  17,   6,  11)
       Max divergence:  0.34E-09 at (  16,  23,  17)
       Min divergence: -0.33E-09 at (  18,   6,  24)
       Max VN number:   0.94E-01 at (   1,  24,  24)
       Mesh    4
       Max CFL number:  0.84E+00 at (   1,   9,  12)
       Max divergence:  0.28E-05 at (  20,  24,  24)
       Min divergence: -0.67E-09 at (   3,   6,  19)
       Max div. error:  0.34E-05 at (  20,  24,  24)
       Max VN number:   0.79E-01 at (   1,  24,  24)
 
       Time Step      50   June 26, 2020  16:22:13
       Step Size:    0.736E-02 s, Total Time:       0.41 s
       Pressure Iterations:      2
       Maximum Velocity Error:  0.51E-02 on Mesh   2 at (   9   9   8)
       Maximum Pressure Error:  0.87E-03 on Mesh   4 at (  20  24  24)
       ScaRC: iterations    87, residual  0.85E-08, convergence rate   0.67E+00
       ---------------------------------------------------------------
       Mesh    1
       Max CFL number:  0.66E+00 at (  20,  16,  11)
       Max divergence:  0.13E-06 at (   1,  23,  24)
       Min divergence: -0.32E-06 at (   2,  24,  24)
       Max VN number:   0.82E-01 at (  20,  16,   9)
       Mesh    2
       Max CFL number:  0.92E+00 at (  11,  15,  11)
       Max divergence:  0.15E-07 at (   8,  12,   9)
       Min divergence: -0.31E-07 at (   1,  24,  24)
       Max VN number:   0.17E+00 at (   7,   8,   9)
       Mesh    3
       Max CFL number:  0.82E+00 at (   1,   4,  11)
       Max divergence:  0.28E-09 at (  20,   5,  17)
       Min divergence: -0.30E-09 at (  15,   3,  19)
       Max VN number:   0.83E-01 at (   1,  24,  24)
       Mesh    4
       Max CFL number:  0.80E+00 at (   4,  10,  11)
       Max divergence:  0.26E-05 at (  20,  24,  24)
       Min divergence: -0.56E-09 at (   8,   6,  14)
       Max div. error:  0.32E-05 at (  20,  24,  24)
       Max VN number:   0.72E-01 at (   3,  24,  10)
 
       Time Step      60   June 26, 2020  16:22:42
       Step Size:    0.736E-02 s, Total Time:       0.49 s
       Pressure Iterations:      2
       Maximum Velocity Error:  0.59E-02 on Mesh   2 at (   9  10   8)
       Maximum Pressure Error:  0.93E-03 on Mesh   4 at (  20  24  24)
       ScaRC: iterations    86, residual  0.98E-08, convergence rate   0.67E+00
       ---------------------------------------------------------------
       Mesh    1
       Max CFL number:  0.67E+00 at (  20,  20,  11)
       Max divergence:  0.13E-06 at (   1,  23,  24)
       Min divergence: -0.33E-06 at (   2,  24,  24)
       Max VN number:   0.85E-01 at (  20,  10,  10)
       Mesh    2
       Max CFL number:  0.98E+00 at (  10,   8,  11)
       Max divergence:  0.33E-07 at (   8,  12,   9)
       Min divergence: -0.40E-07 at (   1,  24,  24)
       Max VN number:   0.18E+00 at (   7,  12,   9)
       Mesh    3
       Max CFL number:  0.88E+00 at (   1,  19,  12)
       Max divergence:  0.11E-08 at (   1,  23,  24)
       Min divergence: -0.12E-08 at (   1,  23,  23)
       Max VN number:   0.84E-01 at (   1,  24,  24)
       Mesh    4
       Max CFL number:  0.78E+00 at (   9,  10,  10)
       Max divergence:  0.28E-05 at (  20,  24,  24)
       Min divergence: -0.58E-09 at (   8,  20,  19)
       Max div. error:  0.34E-05 at (  20,  24,  24)
       Max VN number:   0.72E-01 at (   8,  24,  10)
 
       Time Step      70   June 26, 2020  16:23:17
       Step Size:    0.656E-02 s, Total Time:       0.55 s
       Pressure Iterations:      3
       Maximum Velocity Error:  0.33E-02 on Mesh   2 at (   9  10   8)
       Maximum Pressure Error:  0.97E-03 on Mesh   4 at (  20  24  24)
       ScaRC: iterations    97, residual  0.60E-08, convergence rate   0.70E+00
       ---------------------------------------------------------------
       Mesh    1
       Max CFL number:  0.60E+00 at (   1,   6,  21)
       Max divergence:  0.13E-06 at (   1,  23,  24)
       Min divergence: -0.32E-06 at (   2,  24,  24)
       Max VN number:   0.78E-01 at (  20,  17,  10)
       Mesh    2
       Max CFL number:  0.92E+00 at (   9,   8,  10)
       Max divergence:  0.17E-07 at (   8,  12,   9)
       Min divergence: -0.48E-07 at (   1,  24,  24)
       Max VN number:   0.17E+00 at (   8,  18,   9)
       Mesh    3
       Max CFL number:  0.82E+00 at (   1,  19,  12)
       Max divergence:  0.21E-08 at (   5,  24,  24)
       Min divergence: -0.33E-08 at (   1,  23,  24)
       Max VN number:   0.76E-01 at (   1,  24,  24)
       Mesh    4
       Max CFL number:  0.73E+00 at (   5,  11,  10)
       Max divergence:  0.26E-05 at (  20,  24,  24)
       Min divergence: -0.57E-09 at (  15,  21,  19)
       Max div. error:  0.32E-05 at (  20,  24,  24)
       Max VN number:   0.67E-01 at (   2,   1,  10)
 
       Time Step      80   June 26, 2020  16:23:53
       Step Size:    0.656E-02 s, Total Time:       0.62 s
       Pressure Iterations:      3
       Maximum Velocity Error:  0.45E-02 on Mesh   2 at (   9  13   8)
       Maximum Pressure Error:  0.10E-02 on Mesh   4 at (  20  24  24)
       ScaRC: iterations    87, residual  0.93E-08, convergence rate   0.67E+00
       ---------------------------------------------------------------
       Mesh    1
       Max CFL number:  0.68E+00 at (   1,  14,  10)
       Max divergence:  0.13E-06 at (   1,  23,  24)
       Min divergence: -0.33E-06 at (   2,  24,  24)
       Max VN number:   0.80E-01 at (  20,  15,  10)
       Mesh    2
       Max CFL number:  0.94E+00 at (   9,   3,  10)
       Max divergence:  0.20E-07 at (   8,  13,  10)
       Min divergence: -0.56E-07 at (   1,  24,  24)
       Max VN number:   0.18E+00 at (   8,  12,   9)
       Mesh    3
       Max CFL number:  0.85E+00 at (   2,  13,  12)
       Max divergence:  0.25E-08 at (   1,  22,  23)
       Min divergence: -0.72E-08 at (   1,  24,  24)
       Max VN number:   0.78E-01 at (   1,   1,  12)
       Mesh    4
       Max CFL number:  0.72E+00 at (   8,  13,  11)
       Max divergence:  0.27E-05 at (  20,  24,  24)
       Min divergence: -0.57E-09 at (   3,  20,  14)
       Max div. error:  0.34E-05 at (  20,  24,  24)
       Max VN number:   0.67E-01 at (   6,   1,  10)
 
       Time Step      90   June 26, 2020  16:24:35
       Step Size:    0.586E-02 s, Total Time:       0.68 s
       Pressure Iterations:      3
       Maximum Velocity Error:  0.28E-02 on Mesh   2 at (   9  12   8)
       Maximum Pressure Error:  0.11E-02 on Mesh   4 at (  20  24  24)
       ScaRC: iterations    97, residual  0.65E-08, convergence rate   0.70E+00
       ---------------------------------------------------------------
       Mesh    1
       Max CFL number:  0.58E+00 at (   5,  10,  12)
       Max divergence:  0.14E-06 at (   1,  23,  24)
       Min divergence: -0.33E-06 at (   1,  24,  24)
       Max VN number:   0.71E-01 at (  20,   9,  10)
       Mesh    2
       Max CFL number:  0.90E+00 at (  10,   5,  11)
       Max divergence:  0.14E-07 at (   1,  23,  23)
       Min divergence: -0.56E-07 at (   1,  24,  24)
       Max VN number:   0.15E+00 at (   7,   2,   9)
       Mesh    3
       Max CFL number:  0.76E+00 at (   4,  13,  12)
       Max divergence:  0.35E-08 at (   1,  22,  23)
       Min divergence: -0.12E-07 at (   1,  24,  24)
       Max VN number:   0.72E-01 at (   1,  24,  13)
       Mesh    4
       Max CFL number:  0.69E+00 at (   3,  13,  10)
       Max divergence:  0.26E-05 at (  20,  24,  24)
       Min divergence: -0.52E-09 at (   8,   4,  14)
       Max div. error:  0.31E-05 at (  20,  24,  24)
       Max VN number:   0.60E-01 at (   1,  24,  10)
 
       Time Step     100   June 26, 2020  16:25:15
       Step Size:    0.586E-02 s, Total Time:       0.74 s
       Pressure Iterations:      3
       Maximum Velocity Error:  0.22E-02 on Mesh   2 at (   9   3   8)
       Maximum Pressure Error:  0.11E-02 on Mesh   4 at (  20  24  24)
       ScaRC: iterations    87, residual  0.73E-08, convergence rate   0.67E+00
       ---------------------------------------------------------------
       Mesh    1
       Max CFL number:  0.59E+00 at (   1,  20,  10)
       Max divergence:  0.13E-06 at (   1,  23,  24)
       Min divergence: -0.32E-06 at (   2,  24,  24)
       Max VN number:   0.69E-01 at (  20,  12,  10)
       Mesh    2
       Max CFL number:  0.93E+00 at (   9,  20,  10)
       Max divergence:  0.14E-07 at (   1,  23,  23)
       Min divergence: -0.57E-07 at (   1,  24,  24)
       Max VN number:   0.17E+00 at (   8,   8,   9)
       Mesh    3
       Max CFL number:  0.79E+00 at (   1,  13,  12)
       Max divergence:  0.38E-08 at (   1,  22,  23)
       Min divergence: -0.15E-07 at (   1,  24,  24)
       Max VN number:   0.74E-01 at (   1,  24,  13)
       Mesh    4
       Max CFL number:  0.68E+00 at (   2,   8,  10)
       Max divergence:  0.26E-05 at (  20,  24,  24)
       Min divergence: -0.17E-08 at (   1,  23,  23)
       Max div. error:  0.32E-05 at (  20,  24,  24)
       Max VN number:   0.61E-01 at (   5,   1,   9)
 
       Time Step     200   June 26, 2020  16:30:29
       Step Size:    0.495E-02 s, Total Time:       1.24 s
       Pressure Iterations:      2
       Maximum Velocity Error:  0.41E-02 on Mesh   2 at (   9  21   8)
       Maximum Pressure Error:  0.12E-02 on Mesh   4 at (  20  24  24)
       ScaRC: iterations    97, residual  0.73E-08, convergence rate   0.70E+00
       ---------------------------------------------------------------
       Mesh    1
       Max CFL number:  0.61E+00 at (   1,   6,  10)
       Max divergence:  0.12E-06 at (   1,  23,  24)
       Min divergence: -0.29E-06 at (   1,  24,  24)
       Max VN number:   0.51E-01 at (  12,  23,   7)
       Mesh    2
       Max CFL number:  0.99E+00 at (  13,   9,  13)
       Max divergence:  0.12E-07 at (   7,  23,  23)
       Min divergence: -0.52E-07 at (   1,  24,  24)
       Max VN number:   0.13E+00 at (   8,   2,   9)
       Mesh    3
       Max CFL number:  0.82E+00 at (   1,  11,  14)
       Max divergence:  0.59E-08 at (   1,  22,  23)
       Min divergence: -0.25E-07 at (   1,  24,  24)
       Max VN number:   0.80E-01 at (   6,   3,  10)
       Mesh    4
       Max CFL number:  0.70E+00 at (   1,  17,  11)
       Max divergence:  0.24E-05 at (  20,  24,  24)
       Min divergence: -0.61E-08 at (   1,  24,  24)
       Max div. error:  0.29E-05 at (  20,  24,  24)
       Max VN number:   0.59E-01 at (   1,  24,  11)
 
       Time Step     300   June 26, 2020  16:36:01
       Step Size:    0.431E-02 s, Total Time:       1.71 s
       Pressure Iterations:      2
       Maximum Velocity Error:  0.28E-02 on Mesh   2 at (   9  13   8)
       Maximum Pressure Error:  0.18E-02 on Mesh   4 at (  20  24  24)
       ScaRC: iterations    98, residual  0.55E-08, convergence rate   0.69E+00
       ---------------------------------------------------------------
       Mesh    1
       Max CFL number:  0.66E+00 at (   3,  20,  13)
       Max divergence:  0.17E-06 at (   1,  23,  24)
       Min divergence: -0.39E-06 at (   1,  24,  24)
       Max VN number:   0.75E-01 at (   5,   1,  10)
       Mesh    2
       Max CFL number:  0.70E+00 at (  16,  15,  14)
       Max divergence:  0.10E-07 at (  17,  24,  23)
       Min divergence: -0.40E-07 at (   1,  24,  24)
       Max VN number:   0.15E+00 at (   8,   3,   8)
       Mesh    3
       Max CFL number:  0.74E+00 at (   5,   9,  13)
       Max divergence:  0.97E-08 at (   9,  24,  23)
       Min divergence: -0.17E-07 at (   1,  23,  24)
       Max VN number:   0.88E-01 at (   9,  23,  10)
       Mesh    4
       Max CFL number:  0.96E+00 at (   9,   9,  17)
       Max divergence:  0.31E-05 at (  20,  24,  24)
       Min divergence: -0.80E-08 at (   3,  23,  24)
       Max div. error:  0.39E-05 at (  20,  24,  24)
       Max VN number:   0.81E-01 at (   6,   1,   8)
 
       Time Step     400   June 26, 2020  16:40:39
       Step Size:    0.426E-02 s, Total Time:       2.17 s
       Pressure Iterations:      2
       Maximum Velocity Error:  0.34E-02 on Mesh   2 at (  16  23   8)
       Maximum Pressure Error:  0.11E-02 on Mesh   4 at (  20  24  24)
       ScaRC: iterations    87, residual  0.98E-08, convergence rate   0.67E+00
       ---------------------------------------------------------------
       Mesh    1
       Max CFL number:  0.71E+00 at (  20,   9,   7)
       Max divergence:  0.54E-07 at (   1,  24,  23)
       Min divergence: -0.12E-06 at (   1,  24,  24)
       Max VN number:   0.86E-01 at (  19,   1,  11)
       Mesh    2
       Max CFL number:  0.83E+00 at (  20,   5,  15)
       Max divergence:  0.28E-07 at (  17,  24,  23)
       Min divergence: -0.72E-07 at (  16,  23,  24)
       Max VN number:   0.12E+00 at (   8,   7,   8)
       Mesh    3
       Max CFL number:  0.81E+00 at (   1,   5,  16)
       Max divergence:  0.18E-07 at (   6,  19,  24)
       Min divergence: -0.28E-07 at (   3,  23,  24)
       Max VN number:   0.84E-01 at (  16,  24,  10)
       Mesh    4
       Max CFL number:  0.79E+00 at (   6,   6,  16)
       Max divergence:  0.21E-05 at (  20,  24,  24)
       Min divergence: -0.76E-08 at (  10,  21,  24)
       Max div. error:  0.24E-05 at (  20,  24,  24)
       Max VN number:   0.90E-01 at (   7,  19,  10)
 
       Time Step     500   June 26, 2020  16:45:40
       Step Size:    0.469E-02 s, Total Time:       2.63 s
       Pressure Iterations:      3
       Maximum Velocity Error:  0.19E-02 on Mesh   2 at (   9  15   8)
       Maximum Pressure Error:  0.13E-02 on Mesh   4 at (  20  24  24)
       ScaRC: iterations    97, residual  0.89E-08, convergence rate   0.70E+00
       ---------------------------------------------------------------
       Mesh    1
       Max CFL number:  0.80E+00 at (   5,  15,  16)
       Max divergence:  0.10E-06 at (   1,  24,  23)
       Min divergence: -0.22E-06 at (   1,  24,  24)
       Max VN number:   0.89E-01 at (   7,   5,  10)
       Mesh    2
       Max CFL number:  0.95E+00 at (  12,  16,  14)
       Max divergence:  0.12E-07 at (   2,  19,  23)
       Min divergence: -0.24E-07 at (   3,  20,  24)
       Max VN number:   0.17E+00 at (   8,   5,   8)
       Mesh    3
       Max CFL number:  0.94E+00 at (   6,  16,  17)
       Max divergence:  0.74E-08 at (   1,  18,  24)
       Min divergence: -0.66E-08 at (   1,  16,  24)
       Max VN number:   0.94E-01 at (   7,  24,  16)
       Mesh    4
       Max CFL number:  0.84E+00 at (   3,   9,  16)
       Max divergence:  0.25E-05 at (  20,  24,  24)
       Min divergence: -0.15E-07 at (  19,  19,  24)
       Max div. error:  0.31E-05 at (  20,  24,  24)
       Max VN number:   0.93E-01 at (  20,  23,   6)
 
       Time Step     600   June 26, 2020  16:50:47
       Step Size:    0.457E-02 s, Total Time:       3.05 s
       Pressure Iterations:      2
       Maximum Velocity Error:  0.35E-02 on Mesh   2 at (  10  11   8)
       Maximum Pressure Error:  0.13E-02 on Mesh   4 at (  20  24  24)
       ScaRC: iterations    87, residual  0.79E-08, convergence rate   0.67E+00
       ---------------------------------------------------------------
       Mesh    1
       Max CFL number:  0.90E+00 at (   4,   8,  14)
       Max divergence:  0.11E-06 at (   3,  24,  23)
       Min divergence: -0.33E-06 at (   3,  24,  24)
       Max VN number:   0.92E-01 at (   1,   7,  10)
       Mesh    2
       Max CFL number:  0.79E+00 at (  10,   4,  13)
       Max divergence:  0.16E-07 at (   6,  24,  23)
       Min divergence: -0.39E-07 at (   8,  24,  24)
       Max VN number:   0.14E+00 at (   8,   4,   8)
       Mesh    3
       Max CFL number:  0.85E+00 at (   3,  14,  16)
       Max divergence:  0.82E-08 at (   5,  19,  24)
       Min divergence: -0.86E-08 at (   1,  20,  24)
       Max VN number:   0.93E-01 at (  15,  19,   5)
       Mesh    4
       Max CFL number:  0.86E+00 at (  17,   8,  13)
       Max divergence:  0.27E-05 at (  20,  24,  24)
       Min divergence: -0.40E-08 at (   4,  21,  20)
       Max div. error:  0.29E-05 at (  20,  24,  24)
       Max VN number:   0.12E+00 at (  13,   9,  11)
 
       Time Step     700   June 26, 2020  16:56:13
       Step Size:    0.457E-02 s, Total Time:       3.51 s
       Pressure Iterations:      2
       Maximum Velocity Error:  0.56E-02 on Mesh   2 at (   9  20   8)
       Maximum Pressure Error:  0.40E-04 on Mesh   4 at (  20  24  24)
       ScaRC: iterations    83, residual  0.91E-08, convergence rate   0.68E+00
       ---------------------------------------------------------------
       Mesh    1
       Max CFL number:  0.78E+00 at (   1,   5,  11)
       Max divergence:  0.73E-07 at (   4,  24,  24)
       Min divergence: -0.27E-06 at (   1,  24,  24)
       Max VN number:   0.11E+00 at (   1,   3,  10)
       Mesh    2
       Max CFL number:  0.88E+00 at (  17,  14,  15)
       Max divergence:  0.17E-07 at (   6,  20,  24)
       Min divergence: -0.26E-07 at (   2,  22,  24)
       Max VN number:   0.17E+00 at (   8,  20,   8)
       Mesh    3
       Max CFL number:  0.87E+00 at (   2,  18,  17)
       Max divergence:  0.83E-08 at (   2,  14,  24)
       Min divergence: -0.10E-07 at (   6,  15,  24)
       Max VN number:   0.14E+00 at (   2,   1,  24)
       Mesh    4
       Max CFL number:  0.80E+00 at (  17,   6,  11)
       Max divergence:  0.50E-07 at (  19,  24,  24)
       Min divergence: -0.16E-06 at (  20,  24,  24)
       Max div. error:  0.71E-07 at (  20,  24,  24)
       Max VN number:   0.11E+00 at (   9,   3,   9)
 
       Time Step     800   June 26, 2020  17:01:26
       Step Size:    0.444E-02 s, Total Time:       3.95 s
       Pressure Iterations:      2
       Maximum Velocity Error:  0.23E-02 on Mesh   2 at (   9  15   8)
       Maximum Pressure Error:  0.29E-02 on Mesh   4 at (  20  24  24)
       ScaRC: iterations    98, residual  0.96E-08, convergence rate   0.69E+00
       ---------------------------------------------------------------
       Mesh    1
       Max CFL number:  0.76E+00 at (  12,  10,  12)
       Max divergence:  0.29E-06 at (   1,  23,  24)
       Min divergence: -0.76E-06 at (   1,  24,  24)
       Max VN number:   0.89E-01 at (   7,   7,  11)
       Mesh    2
       Max CFL number:  0.81E+00 at (  19,   5,  11)
       Max divergence:  0.11E-07 at (  14,  23,  23)
       Min divergence: -0.31E-07 at (  15,  24,  24)
       Max VN number:   0.12E+00 at (   8,  21,   8)
       Mesh    3
       Max CFL number:  0.92E+00 at (   7,  21,  14)
       Max divergence:  0.58E-08 at (   1,  24,  23)
       Min divergence: -0.88E-08 at (   1,  22,  24)
       Max VN number:   0.12E+00 at (   4,  10,  10)
       Mesh    4
       Max CFL number:  0.85E+00 at (   3,  10,  11)
       Max divergence:  0.51E-05 at (  20,  24,  24)
       Min divergence: -0.56E-08 at (   7,  17,  24)
       Max div. error:  0.68E-05 at (  20,  24,  24)
       Max VN number:   0.11E+00 at (   1,  18,   9)
 
       Time Step     900   June 26, 2020  17:06:29
       Step Size:    0.389E-02 s, Total Time:       4.37 s
       Pressure Iterations:      2
       Maximum Velocity Error:  0.33E-02 on Mesh   2 at (   9   6   8)
       Maximum Pressure Error:  0.12E-02 on Mesh   4 at (  20  24  24)
       ScaRC: iterations    97, residual  0.75E-08, convergence rate   0.70E+00
       ---------------------------------------------------------------
       Mesh    1
       Max CFL number:  0.66E+00 at (   2,   9,  10)
       Max divergence:  0.25E-06 at (   1,  24,  23)
       Min divergence: -0.64E-06 at (   1,  24,  24)
       Max VN number:   0.90E-01 at (   7,  18,   6)
       Mesh    2
       Max CFL number:  0.82E+00 at (  20,   3,  18)
       Max divergence:  0.25E-07 at (  20,  20,  24)
       Min divergence: -0.52E-07 at (  11,  24,  24)
       Max VN number:   0.16E+00 at (   8,  14,   8)
       Mesh    3
       Max CFL number:  0.97E+00 at (   3,   4,  17)
       Max divergence:  0.31E-07 at (   1,  20,  24)
       Min divergence: -0.20E-07 at (   2,  20,  23)
       Max VN number:   0.11E+00 at (   1,   1,  19)
       Mesh    4
       Max CFL number:  0.76E+00 at (   1,  15,  13)
       Max divergence:  0.15E-05 at (  20,  24,  24)
       Min divergence: -0.39E-08 at (  14,  15,  24)
       Max div. error:  0.24E-05 at (  20,  24,  24)
       Max VN number:   0.93E-01 at (  19,   8,  10)
 
       Time Step    1000   June 26, 2020  17:11:55
       Step Size:    0.428E-02 s, Total Time:       4.76 s
       Pressure Iterations:      2
       Maximum Velocity Error:  0.51E-02 on Mesh   2 at (   9  10   8)
       Maximum Pressure Error:  0.19E-02 on Mesh   4 at (  20  24  24)
       ScaRC: iterations    98, residual  0.59E-08, convergence rate   0.69E+00
       ---------------------------------------------------------------
       Mesh    1
       Max CFL number:  0.72E+00 at (   1,  15,  11)
       Max divergence:  0.72E-07 at (   1,  23,  24)
       Min divergence: -0.17E-06 at (   1,  24,  24)
       Max VN number:   0.93E-01 at (  11,   1,  12)
       Mesh    2
       Max CFL number:  0.85E+00 at (  19,   9,  15)
       Max divergence:  0.96E-08 at (  10,  14,  24)
       Min divergence: -0.14E-07 at (  12,  15,  24)
       Max VN number:   0.20E+00 at (   8,   9,   8)
       Mesh    3
       Max CFL number:  0.88E+00 at (   2,  11,  10)
       Max divergence:  0.53E-08 at (  20,  18,  21)
       Min divergence: -0.80E-08 at (   1,  15,  22)
       Max VN number:   0.12E+00 at (  11,   9,   9)
       Mesh    4
       Max CFL number:  0.88E+00 at (   4,  18,   9)
       Max divergence:  0.35E-05 at (  20,  24,  24)
       Min divergence: -0.11E-07 at (  11,  20,  24)
       Max div. error:  0.40E-05 at (  20,  24,  24)
       Max VN number:   0.10E+00 at (  12,  14,   9)
 
       Time Step    1100   June 26, 2020  17:16:50
       Step Size:    0.428E-02 s, Total Time:       5.19 s
       Pressure Iterations:      2
       Maximum Velocity Error:  0.39E-02 on Mesh   2 at (   9   6   8)
       Maximum Pressure Error:  0.14E-03 on Mesh   4 at (  20  24  24)
       ScaRC: iterations    84, residual  0.87E-08, convergence rate   0.67E+00
       ---------------------------------------------------------------
       Mesh    1
       Max CFL number:  0.74E+00 at (  14,   7,  20)
       Max divergence:  0.10E-06 at (   1,  24,  24)
       Min divergence: -0.66E-07 at (   4,  24,  24)
       Max VN number:   0.11E+00 at (  11,  10,  14)
       Mesh    2
       Max CFL number:  0.88E+00 at (  10,  20,  11)
       Max divergence:  0.31E-07 at (   3,  23,  24)
       Min divergence: -0.50E-07 at (   2,  23,  23)
       Max VN number:   0.16E+00 at (   8,  22,   8)
       Mesh    3
       Max CFL number:  0.96E+00 at (  13,  13,  17)
       Max divergence:  0.36E-08 at (  15,  19,  18)
       Min divergence: -0.43E-08 at (  20,   9,   9)
       Max VN number:   0.13E+00 at (   2,  17,  12)
       Mesh    4
       Max CFL number:  0.84E+00 at (   3,   5,  13)
       Max divergence:  0.44E-06 at (  20,  24,  24)
       Min divergence: -0.43E-07 at (  19,  24,  24)
       Max div. error:  0.31E-06 at (  20,  24,  24)
       Max VN number:   0.12E+00 at (  16,  24,   1)
 
       Time Step    1200   June 26, 2020  17:21:37
       Step Size:    0.418E-02 s, Total Time:       5.59 s
       Pressure Iterations:      2
       Maximum Velocity Error:  0.29E-02 on Mesh   2 at (   9  12   8)
       Maximum Pressure Error:  0.10E-02 on Mesh   4 at (  20  24  24)
       ScaRC: iterations    87, residual  0.77E-08, convergence rate   0.67E+00
       ---------------------------------------------------------------
       Mesh    1
       Max CFL number:  0.78E+00 at (   1,  22,  13)
       Max divergence:  0.22E-06 at (   1,  24,  23)
[...]
       Max CFL number:  0.80E+00 at (  20,  18,  17)
       Max divergence:  0.11E-08 at (  20,  12,   6)
       Min divergence: -0.84E-06 at (  20,  24,  24)
       Max div. error:  0.11E-05 at (  20,  24,  24)
       Max VN number:   0.10E+00 at (   9,  21,   5)
 
       Time Step    8100   June 26, 2020  23:11:57
       Step Size:    0.450E-02 s, Total Time:      33.87 s
       Pressure Iterations:      3
       Maximum Velocity Error:  0.21E-02 on Mesh   2 at (   9  17   8)
       Maximum Pressure Error:  0.23E-02 on Mesh   4 at (  20  24  24)
       ScaRC: iterations    99, residual  0.92E-08, convergence rate   0.70E+00
       ---------------------------------------------------------------
       Mesh    1
       Max CFL number:  0.76E+00 at (   2,  16,  18)
       Max divergence:  0.62E-06 at (   1,  24,  24)
       Min divergence: -0.64E-06 at (   3,  24,  24)
       Max VN number:   0.11E+00 at (   5,   1,  12)
       Mesh    2
       Max CFL number:  0.94E+00 at (  12,  13,  16)
       Max divergence:  0.15E-07 at (  10,  17,  24)
       Min divergence: -0.85E-08 at (  10,  17,  23)
       Max VN number:   0.15E+00 at (   8,  18,   8)
       Mesh    3
       Max CFL number:  0.93E+00 at (  15,  19,  11)
       Max divergence:  0.10E-07 at (  20,  19,   5)
       Min divergence: -0.99E-08 at (   6,  24,  24)
       Max VN number:   0.11E+00 at (   1,   1,  13)
       Mesh    4
       Max CFL number:  0.79E+00 at (   5,  11,  13)
       Max divergence:  0.98E-08 at (  20,  24,  22)
       Min divergence: -0.37E-05 at (  20,  24,  24)
       Max div. error:  0.49E-05 at (  20,  24,  24)
       Max VN number:   0.97E-01 at (  20,   5,   9)
 
       Time Step    8200   June 26, 2020  23:17:09
       Step Size:    0.402E-02 s, Total Time:      34.27 s
       Pressure Iterations:      2
       Maximum Velocity Error:  0.32E-02 on Mesh   2 at (  11  15   8)
       Maximum Pressure Error:  0.24E-02 on Mesh   4 at (  20  24  24)
       ScaRC: iterations    98, residual  0.70E-08, convergence rate   0.69E+00
       ---------------------------------------------------------------
       Mesh    1
       Max CFL number:  0.75E+00 at (   1,  10,   9)
       Max divergence:  0.18E-06 at (   1,  24,  23)
       Min divergence: -0.32E-06 at (   1,  24,  24)
       Max VN number:   0.88E-01 at (  17,  24,   6)
       Mesh    2
       Max CFL number:  0.93E+00 at (  20,  15,  11)
       Max divergence:  0.88E-08 at (   5,  17,  23)
       Min divergence: -0.22E-07 at (   1,  17,  24)
       Max VN number:   0.13E+00 at (  11,   6,  10)
       Mesh    3
       Max CFL number:  0.85E+00 at (   4,   9,  15)
       Max divergence:  0.77E-08 at (   2,  19,  24)
       Min divergence: -0.70E-08 at (   5,  19,  21)
       Max VN number:   0.11E+00 at (   8,  24,  20)
       Mesh    4
       Max CFL number:  0.79E+00 at (   2,  12,  13)
       Max divergence:  0.40E-05 at (  20,  24,  24)
       Min divergence: -0.14E-08 at (  20,  23,  21)
       Max div. error:  0.48E-05 at (  20,  24,  24)
       Max VN number:   0.11E+00 at (   5,  10,  13)
 
       Time Step    8300   June 26, 2020  23:22:01
       Step Size:    0.384E-02 s, Total Time:      34.67 s
       Pressure Iterations:      2
       Maximum Velocity Error:  0.33E-02 on Mesh   2 at (   9  20   8)
       Maximum Pressure Error:  0.10E-02 on Mesh   4 at (  20  24  24)
       ScaRC: iterations    97, residual  0.88E-08, convergence rate   0.70E+00
       ---------------------------------------------------------------
       Mesh    1
       Max CFL number:  0.63E+00 at (  18,  18,   9)
       Max divergence:  0.87E-07 at (   1,  24,  23)
       Min divergence: -0.20E-06 at (   1,  24,  24)
       Max VN number:   0.75E-01 at (  10,  23,   8)
       Mesh    2
       Max CFL number:  0.81E+00 at (  19,  22,  17)
       Max divergence:  0.13E-07 at (  14,  17,  24)
       Min divergence: -0.18E-07 at (  13,  15,  24)
       Max VN number:   0.14E+00 at (   9,  19,   9)
       Mesh    3
       Max CFL number:  0.89E+00 at (  14,  19,  15)
       Max divergence:  0.35E-08 at (   1,  15,  24)
       Min divergence: -0.44E-08 at (   1,  15,  22)
       Max VN number:   0.13E+00 at (  14,  24,  10)
       Mesh    4
       Max CFL number:  0.93E+00 at (   4,  14,  15)
       Max divergence:  0.15E-05 at (  20,  24,  24)
       Min divergence: -0.26E-08 at (   8,  21,  21)
       Max div. error:  0.19E-05 at (  20,  24,  24)
       Max VN number:   0.10E+00 at (   2,  24,  24)
 
       Time Step    8400   June 26, 2020  23:26:53
       Step Size:    0.384E-02 s, Total Time:      35.05 s
       Pressure Iterations:      2
       Maximum Velocity Error:  0.27E-02 on Mesh   2 at (   9  19   8)
       Maximum Pressure Error:  0.89E-04 on Mesh   1 at (   7  24  24)
       ScaRC: iterations    84, residual  0.74E-08, convergence rate   0.68E+00
       ---------------------------------------------------------------
       Mesh    1
       Max CFL number:  0.72E+00 at (  16,  18,  22)
       Max divergence:  0.17E-06 at (   6,  24,  23)
       Min divergence: -0.48E-06 at (   6,  24,  24)
       Max VN number:   0.97E-01 at (  11,  24,  18)
       Mesh    2
       Max CFL number:  0.80E+00 at (  20,   9,  13)
       Max divergence:  0.14E-07 at (   7,  23,  23)
       Min divergence: -0.23E-07 at (   4,  20,  24)
       Max VN number:   0.14E+00 at (   8,  13,   8)
       Mesh    3
       Max CFL number:  0.85E+00 at (   4,   8,  14)
       Max divergence:  0.11E-07 at (   6,  17,  24)
       Min divergence: -0.13E-07 at (   8,  18,  24)
       Max VN number:   0.96E-01 at (   6,  11,  12)
       Mesh    4
       Max CFL number:  0.79E+00 at (   7,  18,  13)
       Max divergence:  0.29E-07 at (  20,  24,  23)
       Min divergence: -0.19E-06 at (  20,  24,  24)
       Max div. error:  0.13E-06 at (  20,  24,  24)
       Max VN number:   0.11E+00 at (   7,  24,  16)
 
       Time Step    8500   June 26, 2020  23:31:28
       Step Size:    0.422E-02 s, Total Time:      35.47 s
       Pressure Iterations:      2
       Maximum Velocity Error:  0.28E-02 on Mesh   2 at (   9   7   8)
       Maximum Pressure Error:  0.39E-03 on Mesh   4 at (  20  24  24)
       ScaRC: iterations    85, residual  0.61E-08, convergence rate   0.67E+00
       ---------------------------------------------------------------
       Mesh    1
       Max CFL number:  0.75E+00 at (  20,  12,  19)
       Max divergence:  0.21E-06 at (   3,  23,  24)
       Min divergence: -0.50E-06 at (   3,  24,  24)
       Max VN number:   0.94E-01 at (   9,   8,   4)
       Mesh    2
       Max CFL number:  0.84E+00 at (  17,  20,  23)
       Max divergence:  0.66E-08 at (   8,  12,  24)
       Min divergence: -0.11E-07 at (   3,  17,  24)
       Max VN number:   0.13E+00 at (   8,  15,   8)
       Mesh    3
       Max CFL number:  0.94E+00 at (  13,  20,  15)
       Max divergence:  0.39E-08 at (  19,  16,  24)
       Min divergence: -0.61E-08 at (  20,  17,  24)
       Max VN number:   0.11E+00 at (  16,  11,  10)
       Mesh    4
       Max CFL number:  0.86E+00 at (  14,  13,  16)
       Max divergence:  0.11E-07 at (  10,  20,  24)
       Min divergence: -0.50E-06 at (  20,  24,  24)
       Max div. error:  0.77E-06 at (  20,  24,  24)
       Max VN number:   0.13E+00 at (   3,  24,   6)
 
       Time Step    8600   June 26, 2020  23:36:20
       Step Size:    0.408E-02 s, Total Time:      35.87 s
       Pressure Iterations:      2
       Maximum Velocity Error:  0.47E-02 on Mesh   2 at (   9   4   8)
       Maximum Pressure Error:  0.28E-03 on Mesh   4 at (  20  24  24)
       ScaRC: iterations    85, residual  0.78E-08, convergence rate   0.67E+00
       ---------------------------------------------------------------
       Mesh    1
       Max CFL number:  0.88E+00 at (   8,   9,  16)
       Max divergence:  0.15E-06 at (   1,  24,  23)
       Min divergence: -0.59E-06 at (   1,  24,  24)
       Max VN number:   0.90E-01 at (   6,  20,  10)
       Mesh    2
       Max CFL number:  0.82E+00 at (  13,   8,  13)
       Max divergence:  0.46E-08 at (   1,  20,  23)
       Min divergence: -0.89E-08 at (   4,  21,  23)
       Max VN number:   0.18E+00 at (   8,  15,   8)
       Mesh    3
       Max CFL number:  0.80E+00 at (  10,   9,  12)
       Max divergence:  0.81E-08 at (  16,  21,  24)
       Min divergence: -0.96E-08 at (  16,  21,  23)
       Max VN number:   0.10E+00 at (   8,  24,  24)
       Mesh    4
       Max CFL number:  0.78E+00 at (  11,  12,  15)
       Max divergence:  0.17E-06 at (  20,  23,  24)
       Min divergence: -0.93E-06 at (  20,  24,  24)
       Max div. error:  0.55E-06 at (  20,  24,  24)
       Max VN number:   0.98E-01 at (  19,  22,   9)
 
       Time Step    8700   June 26, 2020  23:41:42
       Step Size:    0.408E-02 s, Total Time:      36.28 s
       Pressure Iterations:      2
       Maximum Velocity Error:  0.39E-02 on Mesh   2 at (   9  22   8)
       Maximum Pressure Error:  0.33E-03 on Mesh   4 at (  20  24  24)
       ScaRC: iterations    85, residual  0.92E-08, convergence rate   0.67E+00
       ---------------------------------------------------------------
       Mesh    1
       Max CFL number:  0.72E+00 at (  20,  15,  11)
       Max divergence:  0.92E-07 at (   6,  23,  24)
       Min divergence: -0.26E-06 at (   6,  24,  24)
       Max VN number:   0.86E-01 at (  20,  23,   6)
       Mesh    2
       Max CFL number:  0.81E+00 at (  12,  14,  17)
       Max divergence:  0.13E-07 at (   9,  21,  24)
       Min divergence: -0.29E-07 at (   3,  24,  24)
       Max VN number:   0.19E+00 at (   8,  21,   8)
       Mesh    3
       Max CFL number:  0.82E+00 at (   6,  16,  16)
       Max divergence:  0.74E-08 at (   8,  10,  24)
       Min divergence: -0.77E-08 at (   8,  12,  24)
       Max VN number:   0.10E+00 at (  14,  15,  12)
       Mesh    4
       Max CFL number:  0.82E+00 at (   5,  14,  16)
       Max divergence:  0.44E-08 at (   1,   4,  18)
       Min divergence: -0.64E-06 at (  20,  24,  24)
       Max div. error:  0.67E-06 at (  20,  24,  24)
       Max VN number:   0.92E-01 at (   3,   1,  14)
 
       Time Step    8800   June 26, 2020  23:47:02
       Step Size:    0.408E-02 s, Total Time:      36.69 s
       Pressure Iterations:      2
       Maximum Velocity Error:  0.36E-02 on Mesh   2 at (   9  23   8)
       Maximum Pressure Error:  0.33E-02 on Mesh   4 at (  20  24  24)
       ScaRC: iterations    99, residual  0.94E-08, convergence rate   0.70E+00
       ---------------------------------------------------------------
       Mesh    1
       Max CFL number:  0.76E+00 at (  12,  17,  12)
       Max divergence:  0.38E-06 at (   1,  24,  23)
       Min divergence: -0.85E-06 at (   1,  24,  24)
       Max VN number:   0.82E-01 at (   3,  23,  12)
       Mesh    2
       Max CFL number:  0.83E+00 at (  13,   4,  13)
       Max divergence:  0.18E-07 at (  20,  23,  23)
       Min divergence: -0.24E-07 at (  19,  24,  24)
       Max VN number:   0.16E+00 at (   8,   7,   8)
       Mesh    3
       Max CFL number:  0.95E+00 at (  20,  10,  10)
       Max divergence:  0.11E-07 at (   5,  21,  24)
       Min divergence: -0.18E-07 at (   1,  21,  24)
       Max VN number:   0.11E+00 at (  20,  10,  10)
       Mesh    4
       Max CFL number:  0.95E+00 at (   1,  10,  10)
       Max divergence:  0.47E-05 at (  20,  24,  24)
       Min divergence: -0.24E-08 at (  10,  20,  19)
       Max div. error:  0.66E-05 at (  20,  24,  24)
       Max VN number:   0.12E+00 at (   2,   1,   9)
 
       Time Step    8900   June 26, 2020  23:52:27
       Step Size:    0.408E-02 s, Total Time:      37.10 s
       Pressure Iterations:      2
       Maximum Velocity Error:  0.21E-02 on Mesh   2 at (   9   2   8)
       Maximum Pressure Error:  0.15E-02 on Mesh   4 at (  20  24  24)
       ScaRC: iterations    99, residual  0.62E-08, convergence rate   0.70E+00
       ---------------------------------------------------------------
       Mesh    1
       Max CFL number:  0.72E+00 at (   1,   4,  21)
       Max divergence:  0.95E-07 at (   1,  24,  23)
       Min divergence: -0.37E-06 at (   1,  24,  24)
       Max VN number:   0.98E-01 at (   1,   1,   8)
       Mesh    2
       Max CFL number:  0.80E+00 at (  10,   5,  10)
       Max divergence:  0.21E-07 at (   2,  20,  24)
       Min divergence: -0.42E-07 at (   2,  21,  23)
       Max VN number:   0.17E+00 at (   8,   5,   8)
       Mesh    3
       Max CFL number:  0.83E+00 at (  13,  14,  13)
       Max divergence:  0.84E-08 at (   1,   9,  21)
       Min divergence: -0.10E-07 at (   1,   8,  24)
       Max VN number:   0.95E-01 at (  11,   1,  24)
       Mesh    4
       Max CFL number:  0.81E+00 at (  16,  10,  15)
       Max divergence:  0.15E-06 at (  19,  24,  24)
       Min divergence: -0.31E-05 at (  20,  24,  24)
       Max div. error:  0.28E-05 at (  20,  24,  24)
       Max VN number:   0.10E+00 at (   3,  16,   6)
 
       Time Step    9000   June 26, 2020  23:57:52
       Step Size:    0.449E-02 s, Total Time:      37.53 s
       Pressure Iterations:      3
       Maximum Velocity Error:  0.25E-02 on Mesh   2 at (   9   3   8)
       Maximum Pressure Error:  0.28E-02 on Mesh   4 at (  20  24  24)
       ScaRC: iterations    99, residual  0.60E-08, convergence rate   0.69E+00
       ---------------------------------------------------------------
       Mesh    1
       Max CFL number:  0.74E+00 at (   1,  11,  15)
       Max divergence:  0.28E-06 at (   1,  24,  23)
       Min divergence: -0.70E-06 at (   1,  24,  24)
       Max VN number:   0.10E+00 at (  12,   9,   1)
       Mesh    2
       Max CFL number:  0.95E+00 at (  13,  15,  14)
       Max divergence:  0.11E-07 at (   5,  24,  23)
       Min divergence: -0.15E-07 at (   3,  24,  24)
       Max VN number:   0.19E+00 at (   8,  18,   8)
       Mesh    3
       Max CFL number:  0.99E+00 at (  12,   7,  12)
       Max divergence:  0.17E-08 at (  20,  24,  23)
       Min divergence: -0.20E-08 at (  20,  10,  24)
       Max VN number:   0.13E+00 at (   1,   9,   9)
       Mesh    4
       Max CFL number:  0.84E+00 at (   6,  12,  17)
       Max divergence:  0.50E-05 at (  20,  24,  24)
       Min divergence: -0.47E-08 at (   8,  14,  24)
       Max div. error:  0.66E-05 at (  20,  24,  24)
       Max VN number:   0.11E+00 at (  17,   1,   8)
 
       Time Step    9100   June 27, 2020  00:02:49
       Step Size:    0.401E-02 s, Total Time:      37.93 s
       Pressure Iterations:      2
       Maximum Velocity Error:  0.29E-02 on Mesh   2 at (   9   4   8)
       Maximum Pressure Error:  0.81E-03 on Mesh   4 at (  20  24  24)
       ScaRC: iterations    87, residual  0.81E-08, convergence rate   0.67E+00
       ---------------------------------------------------------------
       Mesh    1
       Max CFL number:  0.67E+00 at (  18,   6,  22)
       Max divergence:  0.36E-06 at (   1,  24,  24)
       Min divergence: -0.86E-07 at (   1,  23,  24)
       Max VN number:   0.71E-01 at (  20,   1,   6)
       Mesh    2
       Max CFL number:  0.79E+00 at (  20,   6,  14)
       Max divergence:  0.33E-07 at (  19,  21,  24)
       Min divergence: -0.60E-07 at (  10,  24,  24)
       Max VN number:   0.16E+00 at (   8,   6,   8)
       Mesh    3
       Max CFL number:  0.86E+00 at (  12,  21,  13)
       Max divergence:  0.25E-07 at (   2,  20,  24)
       Min divergence: -0.32E-07 at (   1,  19,  24)
       Max VN number:   0.10E+00 at (  14,  10,  13)
       Mesh    4
       Max CFL number:  0.86E+00 at (  14,   8,  14)
       Max divergence:  0.12E-08 at (  20,   7,  18)
       Min divergence: -0.99E-06 at (  20,  24,  24)
       Max div. error:  0.17E-05 at (  20,  24,  24)
       Max VN number:   0.13E+00 at (  11,  24,  18)
 
       Time Step    9200   June 27, 2020  00:07:43
       Step Size:    0.358E-02 s, Total Time:      38.33 s
       Pressure Iterations:      2
       Maximum Velocity Error:  0.28E-02 on Mesh   2 at (  13   4   8)
       Maximum Pressure Error:  0.28E-04 on Mesh   1 at (   2  24  24)
       ScaRC: iterations    83, residual  0.84E-08, convergence rate   0.68E+00
       ---------------------------------------------------------------
       Mesh    1
       Max CFL number:  0.65E+00 at (   1,   7,  19)
       Max divergence:  0.11E-06 at (   5,  23,  24)
       Min divergence: -0.27E-06 at (   1,  24,  24)
       Max VN number:   0.70E-01 at (   1,   9,   9)
       Mesh    2
       Max CFL number:  0.69E+00 at (  14,   3,  12)
       Max divergence:  0.15E-07 at (   5,  19,  24)
       Min divergence: -0.25E-07 at (   1,  22,  24)
       Max VN number:   0.13E+00 at (   8,   7,   8)
       Mesh    3
       Max CFL number:  0.78E+00 at (  13,  10,  16)
       Max divergence:  0.22E-08 at (  13,  18,  23)
       Min divergence: -0.22E-08 at (  11,  17,  24)
       Max VN number:   0.94E-01 at (  13,   1,  17)
       Mesh    4
       Max CFL number:  0.73E+00 at (   4,  10,  13)
       Max divergence:  0.87E-07 at (  19,  24,  24)
       Min divergence: -0.28E-06 at (  20,  24,  24)
       Max div. error:  0.48E-07 at (  20,  24,  24)
       Max VN number:   0.10E+00 at (   1,  10,  10)
 
       Time Step    9300   June 27, 2020  00:12:33
       Step Size:    0.423E-02 s, Total Time:      38.73 s
       Pressure Iterations:      2
       Maximum Velocity Error:  0.24E-02 on Mesh   2 at (  12   3   8)
       Maximum Pressure Error:  0.59E-03 on Mesh   4 at (  20  24  24)
       ScaRC: iterations    97, residual  0.45E-08, convergence rate   0.70E+00
       ---------------------------------------------------------------
       Mesh    1
       Max CFL number:  0.80E+00 at (  12,   5,  22)
       Max divergence:  0.21E-06 at (   1,  24,  23)
       Min divergence: -0.48E-06 at (   1,  24,  24)
       Max VN number:   0.12E+00 at (  11,   1,  24)
       Mesh    2
       Max CFL number:  0.85E+00 at (  13,  17,  14)
       Max divergence:  0.31E-08 at (  10,  16,  24)
       Min divergence: -0.50E-08 at (   1,  14,  24)
       Max VN number:   0.15E+00 at (   8,  24,   9)
       Mesh    3
       Max CFL number:  0.89E+00 at (   7,   3,  15)
       Max divergence:  0.38E-08 at (   4,   8,  24)
       Min divergence: -0.26E-08 at (  12,   7,  23)
       Max VN number:   0.12E+00 at (   2,   5,  10)
       Mesh    4
       Max CFL number:  0.72E+00 at (   1,   5,  12)
       Max divergence:  0.59E-06 at (  20,  24,  24)
       Min divergence: -0.12E-08 at (  13,  19,  21)
       Max div. error:  0.15E-05 at (  20,  24,  24)
       Max VN number:   0.93E-01 at (  15,  22,   1)
 
       Time Step    9400   June 27, 2020  00:17:15
       Step Size:    0.419E-02 s, Total Time:      39.14 s
       Pressure Iterations:      3
       Maximum Velocity Error:  0.17E-02 on Mesh   2 at (   9   9   8)
       Maximum Pressure Error:  0.13E-02 on Mesh   4 at (  20  24  24)
       ScaRC: iterations    87, residual  0.95E-08, convergence rate   0.67E+00
       ---------------------------------------------------------------
       Mesh    1
       Max CFL number:  0.69E+00 at (  15,   7,  12)
       Max divergence:  0.17E-06 at (   3,  24,  24)
       Min divergence: -0.14E-06 at (   5,  24,  24)
       Max VN number:   0.70E-01 at (   4,   4,  12)
       Mesh    2
       Max CFL number:  0.92E+00 at (   9,   8,  14)
       Max divergence:  0.91E-08 at (  18,  10,  24)
       Min divergence: -0.12E-07 at (  17,  11,  24)
       Max VN number:   0.16E+00 at (   8,  11,   8)
       Mesh    3
       Max CFL number:  0.91E+00 at (  13,  18,  19)
       Max divergence:  0.10E-07 at (   9,  16,  24)
       Min divergence: -0.13E-07 at (  16,  13,  24)
       Max VN number:   0.13E+00 at (   6,  22,  11)
       Mesh    4
       Max CFL number:  0.84E+00 at (   2,  12,  15)
       Max divergence:  0.24E-05 at (  20,  24,  24)
       Min divergence: -0.11E-07 at (   1,  11,  22)
       Max div. error:  0.26E-05 at (  20,  24,  24)
       Max VN number:   0.10E+00 at (   7,  22,   7)
 
