
 Fire Dynamics Simulator

 Current Date     : March  4, 2020  13:41:04
 Revision         : FDS6.7.4-28-gc609011-master
 Revision Date    : Tue Mar 3 16:52:24 2020 +0100
 Compiler         : Intel ifort 18.0.1
 Compilation Date : Mar 03, 2020 16:53:31

 MPI Enabled;    Number of MPI Processes:      10
 OpenMP Enabled; Number of OpenMP Threads:      2

 MPI version: 3.1
 MPI library version: Intel(R) MPI Library 2018 Update 1 for Linux* OS


 Job TITLE        : 
 Job ID string    : uscarc10b_double


 Grid Dimensions, Mesh     1

   Cells in the X Direction            24
   Cells in the Y Direction            30
   Cells in the Z Direction            15
   Number of Grid Cells             10800


 Physical Dimensions, Mesh     1

   Length (m)                       0.240
   Width  (m)                       0.300
   Height (m)                       0.150
   Initial Time Step (s)            0.029

 Grid Dimensions, Mesh     2

   Cells in the X Direction            24
   Cells in the Y Direction            30
   Cells in the Z Direction            15
   Number of Grid Cells             10800


 Physical Dimensions, Mesh     2

   Length (m)                       0.240
   Width  (m)                       0.300
   Height (m)                       0.150
   Initial Time Step (s)            0.029

 Grid Dimensions, Mesh     3

   Cells in the X Direction            24
   Cells in the Y Direction            30
   Cells in the Z Direction            15
   Number of Grid Cells             10800


 Physical Dimensions, Mesh     3

   Length (m)                       0.240
   Width  (m)                       0.300
   Height (m)                       0.150
   Initial Time Step (s)            0.029

 Grid Dimensions, Mesh     4

   Cells in the X Direction            24
   Cells in the Y Direction            30
   Cells in the Z Direction            15
   Number of Grid Cells             10800


 Physical Dimensions, Mesh     4

   Length (m)                       0.240
   Width  (m)                       0.300
   Height (m)                       0.150
   Initial Time Step (s)            0.029

 Grid Dimensions, Mesh     5

   Cells in the X Direction            24
   Cells in the Y Direction            30
   Cells in the Z Direction            15
   Number of Grid Cells             10800


 Physical Dimensions, Mesh     5

   Length (m)                       0.240
   Width  (m)                       0.300
   Height (m)                       0.150
   Initial Time Step (s)            0.029

 Grid Dimensions, Mesh     6

   Cells in the X Direction            24
   Cells in the Y Direction            30
   Cells in the Z Direction            15
   Number of Grid Cells             10800


 Physical Dimensions, Mesh     6

   Length (m)                       0.240
   Width  (m)                       0.300
   Height (m)                       0.150
   Initial Time Step (s)            0.029

 Grid Dimensions, Mesh     7

   Cells in the X Direction            24
   Cells in the Y Direction            30
   Cells in the Z Direction            15
   Number of Grid Cells             10800


 Physical Dimensions, Mesh     7

   Length (m)                       0.240
   Width  (m)                       0.300
   Height (m)                       0.150
   Initial Time Step (s)            0.029

 Grid Dimensions, Mesh     8

   Cells in the X Direction            24
   Cells in the Y Direction            30
   Cells in the Z Direction            15
   Number of Grid Cells             10800


 Physical Dimensions, Mesh     8

   Length (m)                       0.240
   Width  (m)                       0.300
   Height (m)                       0.150
   Initial Time Step (s)            0.029

 Grid Dimensions, Mesh     9

   Cells in the X Direction            24
   Cells in the Y Direction            30
   Cells in the Z Direction            15
   Number of Grid Cells             10800


 Physical Dimensions, Mesh     9

   Length (m)                       0.240
   Width  (m)                       0.300
   Height (m)                       0.150
   Initial Time Step (s)            0.029

 Grid Dimensions, Mesh    10

   Cells in the X Direction            24
   Cells in the Y Direction            30
   Cells in the Z Direction            15
   Number of Grid Cells             10800


 Physical Dimensions, Mesh    10

   Length (m)                       0.240
   Width  (m)                       0.300
   Height (m)                       0.150
   Initial Time Step (s)            0.029

Total Number of Grid Cells        108000


 Miscellaneous Parameters

   Simulation Start Time (s)         48.0
   Simulation End Time (s)           50.0
   LES Calculation
   Eddy Viscosity:           Deardorff Model (C_DEARDORFF = 0.10)
   Near-wall Eddy Viscosity: WALE Model (C_WALE = 0.60)
   Turbulent Prandtl Number:         0.50
   Turbulent Schmidt Number:         0.50
   Ambient Temperature (C):         20.00


 Mass Fraction Transformation Matrix to Convert Species Mixtures (Columns) to Primitive Species (Rows)

                         AIR       DODECANE  PRODUCTS  H2O_PROD  CO2_PROD
   DODECANE              0.000000  1.000000  0.000000  0.000000  0.000000
   NITROGEN              0.762470  0.000000  0.712757  0.000000  0.000000
   OXYGEN                0.230997  0.000000  0.000000  0.000000  0.000000
   CARBON DIOXIDE        0.000591  0.000000  0.199127  0.000000  1.000000
   CARBON MONOXIDE       0.000000  0.000000  0.000000  0.000000  0.000000
   WATER VAPOR           0.005941  0.000000  0.086125  1.000000  0.000000
   SOOT                  0.000000  0.000000  0.001991  0.000000  0.000000
   HYDROGEN              0.000000  0.000000  0.000000  0.000000  0.000000


 Primitive Species Information

   DODECANE
   Gas Species
   Molecular Weight (g/mol)           170.33484
   Ambient Density (kg/m^3)            7.081
   Enthalpy of Formation (J/kg)       -1.10E+06

   NITROGEN
   Gas Species
   Molecular Weight (g/mol)            28.01340
   Ambient Density (kg/m^3)            1.165
   Enthalpy of Formation (J/kg)        0.00E+00

   OXYGEN
   Gas Species
   Molecular Weight (g/mol)            31.99880
   Ambient Density (kg/m^3)            1.330
   Enthalpy of Formation (J/kg)        0.00E+00

   CARBON DIOXIDE
   Gas Species
   Molecular Weight (g/mol)            44.00950
   Ambient Density (kg/m^3)            1.830
   Enthalpy of Formation (J/kg)       -8.94E+06

   CARBON MONOXIDE
   Gas Species
   Molecular Weight (g/mol)            28.01010
   Ambient Density (kg/m^3)            1.164
   Enthalpy of Formation (J/kg)       -3.95E+06

   WATER VAPOR
   Gas Species
   Molecular Weight (g/mol)            18.01528
   Ambient Density (kg/m^3)            0.749
   Enthalpy of Formation (J/kg)       -1.34E+07

   SOOT
   Gas Species
   Molecular Weight (g/mol)            10.91042
   Ambient Density (kg/m^3)            0.454
   Enthalpy of Formation (J/kg)        0.00E+00

   HYDROGEN
   Gas Species
   Molecular Weight (g/mol)             2.01588
   Ambient Density (kg/m^3)            0.084
   Enthalpy of Formation (J/kg)        0.00E+00


 Tracked (Lumped) Species Information

   AIR
   Molecular Weight (g/mol)            28.75199
   Ambient Density (kg/m^3)            1.195
   Initial Mass Fraction               1.000
   Enthalpy of Formation (J/kg)     -8.50E+04

   Sub Species                    Mass Fraction     Mole Fraction
   NITROGEN                       7.624701E-01      7.825730E-01
   OXYGEN                         2.309974E-01      2.075589E-01
   CARBON DIOXIDE                 5.914651E-04      3.864120E-04
   WATER VAPOR                    5.940984E-03      9.481679E-03
 
     Viscosity (kg/m/s) Ambient,  293 K:  1.80E-05
                                  500 K:  2.61E-05
                                 1000 K:  4.13E-05
                                 1500 K:  5.37E-05
   Therm. Cond. (W/m/K) Ambient,  293 K:  2.56E-02
                                  500 K:  3.81E-02
                                 1000 K:  6.69E-02
                                 1500 K:  9.25E-02
        Enthalpy (J/kg) Ambient,  293 K: -9.01E+04
                                  500 K:  1.22E+05
                                 1000 K:  6.72E+05
                                 1500 K:  1.27E+06
    Spec. Heat (J/kg/K) Ambient,  293 K:  1.02E+03
                                  500 K:  1.04E+03
                                 1000 K:  1.16E+03
                                 1500 K:  1.23E+03
   Diff. Coeff. (m^2/s) Ambient,  293 K:  1.99E-05
                                  500 K:  4.96E-05
                                 1000 K:  1.58E-04
                                 1500 K:  3.09E-04

   DODECANE
   Molecular Weight (g/mol)           170.33484
   Ambient Density (kg/m^3)            7.081
   Initial Mass Fraction               0.000
   Enthalpy of Formation (J/kg)     -1.10E+06

   Sub Species                    Mass Fraction     Mole Fraction
   DODECANE                       1.000000E+00      1.000000E+00
 
     Viscosity (kg/m/s) Ambient,  293 K:  2.01E-05
                                  500 K:  3.19E-05
                                 1000 K:  5.36E-05
                                 1500 K:  7.05E-05
   Therm. Cond. (W/m/K) Ambient,  293 K:  6.55E-02
                                  500 K:  1.62E-01
                                 1000 K:  3.99E-01
                                 1500 K:  6.20E-01
        Enthalpy (J/kg) Ambient,  293 K: -1.11E+06
                                  500 K: -6.71E+05
                                 1000 K:  9.28E+05
                                 1500 K:  2.97E+06
    Spec. Heat (J/kg/K) Ambient,  293 K:  1.63E+03
                                  500 K:  2.54E+03
                                 1000 K:  3.72E+03
                                 1500 K:  4.40E+03
   Diff. Coeff. (m^2/s) Ambient,  293 K:  1.05E-05
                                  500 K:  2.70E-05
                                 1000 K:  8.76E-05
                                 1500 K:  1.72E-04

   PRODUCTS
   Molecular Weight (g/mol)            28.62768
   Ambient Density (kg/m^3)            1.190
   Initial Mass Fraction               0.000
   Enthalpy of Formation (J/kg)     -2.94E+06

   Sub Species                    Mass Fraction     Mole Fraction
   NITROGEN                       7.127568E-01      7.283862E-01
   CARBON DIOXIDE                 1.991272E-01      1.295300E-01
   CARBON MONOXIDE                0.000000E+00      0.000000E+00
   WATER VAPOR                    8.612465E-02      1.368588E-01
   SOOT                           1.991361E-03      5.225099E-03
 
     Viscosity (kg/m/s) Ambient,  293 K:  1.62E-05
                                  500 K:  2.40E-05
                                 1000 K:  3.90E-05
                                 1500 K:  5.14E-05
   Therm. Cond. (W/m/K) Ambient,  293 K:  2.34E-02
                                  500 K:  3.61E-02
                                 1000 K:  6.68E-02
                                 1500 K:  9.54E-02
        Enthalpy (J/kg) Ambient,  293 K: -2.94E+06
                                  500 K: -2.72E+06
                                 1000 K: -2.11E+06
                                 1500 K: -1.45E+06
    Spec. Heat (J/kg/K) Ambient,  293 K:  1.07E+03
                                  500 K:  1.13E+03
                                 1000 K:  1.28E+03
                                 1500 K:  1.38E+03
   Diff. Coeff. (m^2/s) Ambient,  293 K:  1.94E-05
                                  500 K:  4.92E-05
                                 1000 K:  1.59E-04
                                 1500 K:  3.12E-04

   H2O_PRODUCT
   Molecular Weight (g/mol)            18.01528
   Ambient Density (kg/m^3)            0.749
   Initial Mass Fraction               0.000
   Enthalpy of Formation (J/kg)     -1.34E+07

   Sub Species                    Mass Fraction     Mole Fraction
   WATER VAPOR                    1.000000E+00      1.000000E+00
 
     Viscosity (kg/m/s) Ambient,  293 K:  1.05E-05
                                  500 K:  1.77E-05
                                 1000 K:  3.58E-05
                                 1500 K:  5.21E-05
   Therm. Cond. (W/m/K) Ambient,  293 K:  1.96E-02
                                  500 K:  3.46E-02
                                 1000 K:  8.21E-02
                                 1500 K:  1.37E-01
        Enthalpy (J/kg) Ambient,  293 K: -1.34E+07
                                  500 K: -1.30E+07
                                 1000 K: -1.20E+07
                                 1500 K: -1.07E+07
    Spec. Heat (J/kg/K) Ambient,  293 K:  1.86E+03
                                  500 K:  1.96E+03
                                 1000 K:  2.29E+03
                                 1500 K:  2.63E+03
   Diff. Coeff. (m^2/s) Ambient,  293 K:  2.10E-05
                                  500 K:  5.78E-05
                                 1000 K:  1.98E-04
                                 1500 K:  3.95E-04

   CO2_PRODUCT
   Molecular Weight (g/mol)            44.00950
   Ambient Density (kg/m^3)            1.830
   Initial Mass Fraction               0.000
   Enthalpy of Formation (J/kg)     -8.94E+06

   Sub Species                    Mass Fraction     Mole Fraction
   CARBON DIOXIDE                 1.000000E+00      1.000000E+00
 
     Viscosity (kg/m/s) Ambient,  293 K:  1.49E-05
                                  500 K:  2.35E-05
                                 1000 K:  3.91E-05
                                 1500 K:  5.14E-05
   Therm. Cond. (W/m/K) Ambient,  293 K:  1.66E-02
                                  500 K:  3.17E-02
                                 1000 K:  6.44E-02
                                 1500 K:  9.09E-02
        Enthalpy (J/kg) Ambient,  293 K: -8.95E+06
                                  500 K: -8.75E+06
                                 1000 K: -8.18E+06
                                 1500 K: -7.54E+06
    Spec. Heat (J/kg/K) Ambient,  293 K:  8.38E+02
                                  500 K:  1.01E+03
                                 1000 K:  1.23E+03
                                 1500 K:  1.33E+03
   Diff. Coeff. (m^2/s) Ambient,  293 K:  1.52E-05
                                  500 K:  3.89E-05
                                 1000 K:  1.26E-04
                                 1500 K:  2.47E-04


 Gas Phase Reaction Information

   JP8, C_12 H_23

   Fuel                                           Heat of Combustion (kJ/kg)
   DODECANE                                                       41991.7638

   Stoichiometry

   Primitive Species Stoich. Coeff.
   Species ID                                                          Molar
   DODECANE                                                        -1.000000
   NITROGEN                                                         0.076936
   OXYGEN                                                         -17.316764
   CARBON DIOXIDE                                                  11.592154
   WATER VAPOR                                                     11.491038
   SOOT                                                             0.468915

   Tracked (Lumped) Species Stoich. Coeff.
   Species ID                                             Molar         Mass
   AIR                                               -83.430602   -14.082824
   DODECANE                                           -1.000000    -1.000000
   PRODUCTS                                           89.742882    15.082824

   Reaction Kinetics

   Arrhenius Parameters
   Pre-exponential:    Infinite
   Activation Energy:  N/A

   ODE Solver:  EXPLICIT EULER
   Extinction Model:  EXTINCTION 2
   Auto-Ignition Temperature (K):     478.1
   Critical Flame Temperature (K):   1700.2


 Material Information

   1 JP8 LIQUID                                                  
     Emissivity                      1.000
     Density (kg/m3)                 802.0
     Specific Heat (kJ/kg/K)      1.82E+00
     Conductivity (W/m/K)           0.1250
     Absorption coefficient (1/m)   301.40
     Liquid evaporation reaction
        Gaseous Yields:
        AIR                                                         :     0.00
        DODECANE                                                    :     1.00
        PRODUCTS                                                    :     0.00
        H2O_PRODUCT                                                 :     0.00
        CO2_PRODUCT                                                 :     0.00
        Boiling temperature (C):   210.00
        H_R (kJ/kg)            :  2.50E+02

   2 WATER                                                       
     Emissivity                      0.900
     Density (kg/m3)                1000.0
     Specific Heat (kJ/kg/K)      4.19E+00
     Conductivity (W/m/K)           0.6000

   3 STEEL                                                       
     Emissivity                      1.000
     Density (kg/m3)                7850.0
     Specific Heat (kJ/kg/K)      4.60E-01
     Conductivity (W/m/K)          45.8000

   4 Soda                                                        
     NaHCO3, Ref: M. Ball et al. J. Chem. Soc. Faraday Trans. 1, 1986, 82, 3709-3715
     Emissivity                      0.800
     Density (kg/m3)                2200.0
     Specific Heat (kJ/kg/K)      1.40E+00
     Conductivity (W/m/K)           0.2000
     Reaction  1
        Residue: Sodium Carbonate, Yield:  0.631
        Gaseous Yields:
        AIR                                                         :     0.00
        DODECANE                                                    :     0.00
        PRODUCTS                                                    :     0.00
        H2O_PRODUCT                                                 :     0.11
        CO2_PRODUCT                                                 :     0.26
        A (1/s)    :  3.40E+11
        E (J/mol):  1.03E+05
        H_R (kJ/kg):  7.69E+02
        N_S        :     1.00
        Threshold temperature (C):    80.00
        N_T        :     0.00

   5 Sodium Carbonate                                            
     Na2CO3
     Emissivity                      0.800
     Density (kg/m3)                2540.0
     Specific Heat (kJ/kg/K)      1.40E+00
     Conductivity (W/m/K)           0.2000


 Surface Conditions

   0 INERT (DEFAULT)

   1 JP8 POOL
     Material List
          1  JP8 LIQUID
     Layer  1
        Thickness   (m):  0.10000
        Density (kg/m3):   802.00
        JP8 LIQUID, Mass fraction:    1.00
     Total surface density    80.200 kg/m2
     Reaction products considered from the first  0.50 layers.
     Solid Phase Node, Layer, Coordinates(m):
                    0      1       0.0000000
                    1      1       0.0002618
                    2      1       0.0007853
                    3      1       0.0018325
                    4      1       0.0039267
                    5      1       0.0081152
                    6      1       0.0164921
                    7      1       0.0332461
                    8      1       0.0667539
                    9      1       0.0835079
                   10      1       0.0918848
                   11      1       0.0960733
                   12      1       0.0981675
                   13      1       0.0992147
                   14      1       0.0997382
                   15      1       0.1000000
     Exposed Backing

   2 STEEL SHEET
     Material List
          1  STEEL
     Layer  1
        Thickness   (m):  0.00173
        Density (kg/m3):  7850.00
        STEEL, Mass fraction:    1.00
     Total surface density    13.581 kg/m2
     Reaction products considered from the first  0.50 layers.
     Solid Phase Node, Layer, Coordinates(m):
                    0      1       0.0000000
                    1      1       0.0017300
     Exposed Backing

   3 STEEL SIDE WALL
     Material List
          1  STEEL
     Layer  1
        Thickness   (m):  0.01000
        Density (kg/m3):  7850.00
        STEEL, Mass fraction:    1.00
     Total surface density    78.500 kg/m2
     Reaction products considered from the first  0.50 layers.
     Solid Phase Node, Layer, Coordinates(m):
                    0      1       0.0000000
                    1      1       0.0025000
                    2      1       0.0075000
                    3      1       0.0100000
     Exposed Backing

   4 STEEL BOTTOM WALL
     Material List
          1  STEEL
     Layer  1
        Thickness   (m):  0.01000
        Density (kg/m3):  7850.00
        STEEL, Mass fraction:    1.00
     Total surface density    78.500 kg/m2
     Reaction products considered from the first  0.50 layers.
     Solid Phase Node, Layer, Coordinates(m):
                    0      1       0.0000000
                    1      1       0.0025000
                    2      1       0.0075000
                    3      1       0.0100000
     Exposed Backing

   5 STEEL FLOOR BRACKET
     Material List
          1  STEEL
     Layer  1
        Thickness   (m):  0.01000
        Density (kg/m3):  7850.00
        STEEL, Mass fraction:    1.00
     Total surface density    78.500 kg/m2
     Reaction products considered from the first  0.50 layers.
     Solid Phase Node, Layer, Coordinates(m):
                    0      1       0.0000000
                    1      1       0.0025000
                    2      1       0.0075000
                    3      1       0.0100000
     Exposed Backing

   6 STEEL PIPES
     Material List
          1  STEEL
     Layer  1
        Thickness   (m):  0.01000
        Density (kg/m3):  7850.00
        STEEL, Mass fraction:    1.00
     Total surface density    78.500 kg/m2
     Reaction products considered from the first  0.50 layers.
     Solid Phase Node, Layer, Coordinates(m):
                    0      1       0.0000000
                    1      1       0.0025000
                    2      1       0.0075000
                    3      1       0.0100000
     Exposed Backing

   7 STEEL LIP FRONT
     Material List
          1  STEEL
     Layer  1
        Thickness   (m):  0.00150
        Density (kg/m3):  7850.00
        STEEL, Mass fraction:    1.00
     Total surface density    11.775 kg/m2
     Reaction products considered from the first  0.50 layers.
     Solid Phase Node, Layer, Coordinates(m):
                    0      1       0.0000000
                    1      1       0.0015000
     Exposed Backing

   8 STEEL LIP SIDE
     Material List
          1  STEEL
     Layer  1
        Thickness   (m):  0.00150
        Density (kg/m3):  7850.00
        STEEL, Mass fraction:    1.00
     Total surface density    11.775 kg/m2
     Reaction products considered from the first  0.50 layers.
     Solid Phase Node, Layer, Coordinates(m):
                    0      1       0.0000000
                    1      1       0.0015000
     Exposed Backing

   9 STEEL PAN STAND1
     Material List
          1  STEEL
     Layer  1
        Thickness   (m):  0.00300
        Density (kg/m3):  7850.00
        STEEL, Mass fraction:    1.00
     Total surface density    23.550 kg/m2
     Reaction products considered from the first  0.50 layers.
     Solid Phase Node, Layer, Coordinates(m):
                    0      1       0.0000000
                    1      1       0.0030000
     Exposed Backing

  10 STEEL PAN STAND2
     Material List
          1  STEEL
     Layer  1
        Thickness   (m):  0.00300
        Density (kg/m3):  7850.00
        STEEL, Mass fraction:    1.00
     Total surface density    23.550 kg/m2
     Reaction products considered from the first  0.50 layers.
     Solid Phase Node, Layer, Coordinates(m):
                    0      1       0.0000000
                    1      1       0.0030000
     Exposed Backing

  11 STEEL ROD1
     Material List
          1  STEEL
     Layer  1
        Thickness   (m):  0.01300
        Density (kg/m3):  7850.00
        STEEL, Mass fraction:    1.00
     Total surface density   102.050 kg/m2
     Reaction products considered from the first  0.50 layers.
     Solid Phase Node, Layer, Coordinates(m):
                    0      1       0.0000000
                    1      1       0.0032500
                    2      1       0.0097500
                    3      1       0.0130000
     Exposed Backing

  12 STEEL ROD2
     Material List
          1  STEEL
     Layer  1
        Thickness   (m):  0.01000
        Density (kg/m3):  7850.00
        STEEL, Mass fraction:    1.00
     Total surface density    78.500 kg/m2
     Reaction products considered from the first  0.50 layers.
     Solid Phase Node, Layer, Coordinates(m):
                    0      1       0.0000000
                    1      1       0.0025000
                    2      1       0.0075000
                    3      1       0.0100000
     Exposed Backing

  13 INLET
     Normal Velocity (m/s)        -2.000
     AIR Mass Fraction         1.000

  14 agent
     Material List
          1  Soda
          2  Sodium Carbonate
     Layer  1
        Thickness   (m):  0.00000
        Density (kg/m3):  2200.00
        Soda, Mass fraction:    1.00
     Total surface density     0.002 kg/m2
     Solid Phase Node, Layer, Coordinates(m):
                    0      1       0.0000000
                    1      1       0.0000030
     Assumed spherical symmetry
     Convection length scale (m)  6.00E-06

  15 OPEN
     Passive Vent to Atmosphere

  16 MIRROR
     Symmetry Plane

  17 INTERPOLATED

  18 PERIODIC

  19 HVAC

  20 MASSLESS TRACER

  21 DROPLET

  22 EVACUATION_OUTFLOW
     Normal Velocity (m/s)         0.000

  23 MASSLESS TARGET

  24 PERIODIC WIND

  25 SLICE


 Device Coordinates

     1 Coords:      0.000000      0.000000      0.299900, Make: null, ID: active05, Quantity: TIME
     2 Coords:      0.250000      0.000000      0.149900, Make: null, ID: MY NET HF, Quantity: NET HEAT FLUX
     3 Coords:      0.000000      0.000000      0.200000, Make: null, ID: TOTAL ENERGY ABORBED, Quantity: CONTROL VALUE


 Slice File Information, Mesh     1

   Sampling Interval (s)             0.020

   1 Nodes:   0  24  16  16   0  15, Quantity: TEMPERATURE


 Radiation Model Information

   Number of control angles  104
   Time step increment         3
   Angle increment             5
   Theta band N_phi   Solid angle
     1:        4     0.120
     2:       12     0.114
     3:       16     0.127
     4:       20     0.120
     5:       20     0.120
     6:       16     0.127
     7:       12     0.114
     8:        4     0.120
   Using gray gas absorption.
   Mean beam length  0.100 m
 
 

 Run Time Diagnostics

       Time Step       1   March  4, 2020  13:41:06
       Step Size:    0.289E-01 s, Total Time:      48.03 s
       Pressure Iterations:      1
       Maximum Velocity Error:  0.35E-17 on Mesh   2 at (   3  15  16)
       Maximum Pressure Error:  0.20E+03 on Mesh   7 at (   3  18   3)
       ScaRC: iterations    93, residual  0.91E-08, convergence rate   0.76E+00
       ---------------------------------------------------------------
       Mesh    1
       Max CFL number:  0.12E+00 at (   9,   2,  11)
       Max divergence:  0.12E-05 at (   4,  23,  14)
       Min divergence: -0.11E-05 at (  22,   4,  14)
       Max VN number:   0.85E-01 at (  24,   3,   2)
       Mesh    2
       Max CFL number:  0.11E+00 at (  10,  20,   4)
       Max divergence:  0.63E-02 at (   9,  19,   9)
       Min divergence: -0.12E-05 at (   7,   8,   3)
       Max VN number:   0.13E+00 at (   2,  17,   2)
       Mesh    3
       Max CFL number:  0.12E+00 at (   4,  10,   8)
       Max divergence:  0.10E-05 at (   4,  11,   2)
       Min divergence: -0.14E-05 at (   2,  22,  13)
       Max VN number:   0.98E-01 at (   3,   2,  11)
       Mesh    4
       Max CFL number:  0.12E+00 at (  12,  12,   6)
       Max divergence:  0.10E-05 at (  14,   3,  11)
       Min divergence: -0.10E-05 at (  11,   9,   8)
       Max VN number:   0.11E+00 at (  19,  13,   1)
       Mesh    5
       Max CFL number:  0.11E+00 at (  20,  22,   3)
       Max divergence:  0.11E-05 at (  16,  11,   2)
       Min divergence: -0.11E-05 at (  23,  11,   2)
       Max VN number:   0.96E-01 at (  19,  29,   1)
       Mesh    6
       Max CFL number:  0.12E+00 at (   6,  21,   8)
       Max divergence:  0.12E-05 at (   9,  16,  10)
       Min divergence: -0.12E-05 at (  16,  14,  14)
       Max VN number:   0.11E+00 at (  16,  13,   1)
       Mesh    7
       Max CFL number:  0.11E+00 at (  22,  26,  10)
       Max divergence:  0.12E-05 at (   9,  18,   4)
       Min divergence: -0.11E-05 at (   7,  29,  14)
       Max VN number:   0.11E+00 at (   5,  20,  15)
       Mesh    8
       Max CFL number:  0.11E+00 at (   6,  23,   4)
       Max divergence:  0.95E-06 at (   4,  25,  14)
       Min divergence: -0.15E-05 at (  14,  26,  14)
       Max VN number:   0.11E+00 at (  10,   1,   4)
       Mesh    9
       Max CFL number:  0.12E+00 at (  15,  20,   8)
       Max divergence:  0.11E-05 at (  19,   3,   9)
       Min divergence: -0.13E-05 at (   1,   4,  14)
       Max VN number:   0.10E+00 at (   2,  21,  15)
       Mesh   10
       Max CFL number:  0.11E+00 at (   6,  13,   5)
       Max divergence:  0.13E-05 at (  15,  17,  12)
       Min divergence: -0.12E-05 at (   8,  28,  14)
       Max VN number:   0.88E-01 at (  18,  12,  15)
 
       Time Step       2   March  4, 2020  13:41:07
       Step Size:    0.289E-01 s, Total Time:      48.06 s
       Pressure Iterations:      1
       Maximum Velocity Error:  0.16E-16 on Mesh   2 at (  11  14  16)
       Maximum Pressure Error:  0.10E+05 on Mesh   7 at (   3  18   3)
       ScaRC: iterations    99, residual  0.70E-08, convergence rate   0.77E+00
       ---------------------------------------------------------------
       Mesh    1
       Max CFL number:  0.11E+00 at (   9,   2,  11)
       Max divergence:  0.12E-05 at (   4,  23,  14)
       Min divergence: -0.10E-05 at (  22,   4,  14)
       Max VN number:   0.84E-01 at (  24,   3,   2)
       Mesh    2
       Max CFL number:  0.11E+00 at (  10,  20,   4)
       Max divergence:  0.14E+01 at (  13,  16,   9)
       Min divergence: -0.12E-05 at (   7,   8,   3)
       Max VN number:   0.11E+00 at (  11,  27,   6)
       Total Heat Release Rate:              0.102 kW
       Mesh    3
       Max CFL number:  0.11E+00 at (   4,  10,   8)
       Max divergence:  0.10E-05 at (   4,  11,   2)
       Min divergence: -0.14E-05 at (   2,  22,  13)
       Max VN number:   0.92E-01 at (   6,  21,  12)
       Mesh    4
       Max CFL number:  0.11E+00 at (  12,  12,   6)
       Max divergence:  0.10E-05 at (  14,  27,  12)
       Min divergence: -0.10E-05 at (  11,   9,   8)
       Max VN number:   0.11E+00 at (  19,  13,   1)
       Mesh    5
       Max CFL number:  0.11E+00 at (  20,  22,   3)
       Max divergence:  0.11E-05 at (  16,  11,   2)
       Min divergence: -0.11E-05 at (  23,  11,   2)
       Max VN number:   0.95E-01 at (  19,  29,   1)
       Mesh    6
       Max CFL number:  0.11E+00 at (   6,  21,   8)
       Max divergence:  0.12E-05 at (   9,  16,  10)
       Min divergence: -0.12E-05 at (  16,  14,  14)
       Max VN number:   0.10E+00 at (  16,  13,   1)
       Mesh    7
       Max CFL number:  0.11E+00 at (  22,  26,  10)
       Max divergence:  0.15E-05 at (   8,  15,   2)
       Min divergence: -0.11E-05 at (   7,  29,  14)
       Max VN number:   0.11E+00 at (   5,  20,  15)
       Mesh    8
       Max CFL number:  0.11E+00 at (   6,  23,   4)
       Max divergence:  0.93E-06 at (   4,  25,  14)
       Min divergence: -0.14E-05 at (  14,  26,  14)
       Max VN number:   0.11E+00 at (  10,   1,   4)
       Mesh    9
       Max CFL number:  0.11E+00 at (  15,  20,   8)
       Max divergence:  0.11E-05 at (  19,   3,   9)
       Min divergence: -0.12E-05 at (   1,   4,  14)
       Max VN number:   0.98E-01 at (   2,  21,  15)
       Mesh   10
       Max CFL number:  0.11E+00 at (   6,  13,   5)
       Max divergence:  0.13E-05 at (  15,  17,  12)
       Min divergence: -0.11E-05 at (   8,  28,  14)
       Max VN number:   0.87E-01 at (  18,  12,  15)
 
       Time Step       3   March  4, 2020  13:41:09
       Step Size:    0.289E-01 s, Total Time:      48.09 s
       Pressure Iterations:      1
       Maximum Velocity Error:  0.56E-16 on Mesh   2 at (  10  11  16)
       Maximum Pressure Error:  0.37E+05 on Mesh   7 at (   3  18   3)
       ScaRC: iterations   101, residual  0.88E-08, convergence rate   0.77E+00
       ---------------------------------------------------------------
       Mesh    1
       Max CFL number:  0.11E+00 at (   9,   2,  11)
       Max divergence:  0.12E-05 at (   4,  23,  14)
       Min divergence: -0.10E-05 at (  20,  13,   5)
       Max VN number:   0.84E-01 at (  24,   3,   2)
       Mesh    2
       Max CFL number:  0.19E+00 at (  16,  25,  11)
       Max divergence:  0.69E+01 at (  12,  11,   9)
       Min divergence: -0.12E-05 at (  19,  21,  10)
       Max VN number:   0.15E+00 at (  16,  24,  10)
       Total Heat Release Rate:              0.500 kW
       Radiation Loss to Boundaries:        -0.004 kW
       Mesh    3
       Max CFL number:  0.12E+00 at (   2,  15,  10)
       Max divergence:  0.99E-06 at (  15,   2,   2)
       Min divergence: -0.13E-05 at (   2,  22,  13)
       Max VN number:   0.92E-01 at (   4,  16,  14)
       Mesh    4
       Max CFL number:  0.11E+00 at (  12,  12,   6)
       Max divergence:  0.10E-05 at (  14,  27,  12)
       Min divergence: -0.10E-05 at (  11,   9,   8)
       Max VN number:   0.10E+00 at (   1,   5,   1)
       Mesh    5
       Max CFL number:  0.11E+00 at (  15,   7,  11)
       Max divergence:  0.11E-05 at (  16,  11,   2)
       Min divergence: -0.11E-05 at (   5,  28,  11)
       Max VN number:   0.87E-01 at (  19,  29,   1)
       Mesh    6
       Max CFL number:  0.11E+00 at (   6,  21,   8)
       Max divergence:  0.12E-05 at (   9,  16,  10)
       Min divergence: -0.11E-05 at (  16,  14,  14)
       Max VN number:   0.10E+00 at (   1,  14,   9)
       Mesh    7
       Max CFL number:  0.11E+00 at (  13,  16,   3)
       Max divergence:  0.21E-05 at (   8,  15,   2)
       Min divergence: -0.11E-05 at (   7,  29,  14)
       Max VN number:   0.11E+00 at (   5,  20,  15)
       Mesh    8
       Max CFL number:  0.11E+00 at (  22,  11,   2)
       Max divergence:  0.91E-06 at (   4,  25,  14)
       Min divergence: -0.14E-05 at (  14,  26,  14)
       Max VN number:   0.10E+00 at (  17,  30,  14)
       Mesh    9
       Max CFL number:  0.11E+00 at (   6,  18,   5)
       Max divergence:  0.11E-05 at (  19,   3,   9)
       Min divergence: -0.12E-05 at (   1,   4,  14)
       Max VN number:   0.10E+00 at (  10,   1,  13)
       Mesh   10
       Max CFL number:  0.11E+00 at (  12,  16,   8)
       Max divergence:  0.12E-05 at (  15,  17,  12)
       Min divergence: -0.11E-05 at (   8,  28,  14)
       Max VN number:   0.96E-01 at (  11,  20,  15)
 
       Time Step       4   March  4, 2020  13:41:11
       Step Size:    0.289E-01 s, Total Time:      48.12 s
       Pressure Iterations:      1
       Maximum Velocity Error:  0.28E-16 on Mesh   2 at (  12   9  16)
       Maximum Pressure Error:  0.17E+05 on Mesh   7 at (   3  18   3)
       ScaRC: iterations   101, residual  0.77E-08, convergence rate   0.76E+00
       ---------------------------------------------------------------
       Mesh    1
       Max CFL number:  0.10E+00 at (   9,   2,  11)
       Max divergence:  0.16E-05 at (  24,  19,  15)
       Min divergence: -0.11E-05 at (  20,  13,   5)
       Max VN number:   0.88E-01 at (  24,   3,   2)
       Mesh    2
       Max CFL number:  0.71E+00 at (  16,  25,  11)
       Max divergence:  0.85E+01 at (  15,  22,   9)
       Min divergence: -0.26E-05 at (  19,  21,  10)
       Max VN number:   0.42E+00 at (  17,  18,  11)
       Total Heat Release Rate:              0.699 kW
       Radiation Loss to Boundaries:        -0.016 kW
       Mesh    3
       Max CFL number:  0.17E+00 at (   2,  15,  10)
       Max divergence:  0.11E-05 at (   2,  23,  14)
       Min divergence: -0.18E-05 at (   2,  20,  11)
       Max VN number:   0.14E+00 at (   3,   7,  14)
       Mesh    4
       Max CFL number:  0.15E+00 at (  16,   5,  14)
       Max divergence:  0.10E-05 at (   7,  16,   2)
       Min divergence: -0.10E-05 at (  11,   9,   8)
       Max VN number:   0.93E-01 at (   6,   1,  12)
       Mesh    5
       Max CFL number:  0.14E+00 at (  14,   7,   3)
       Max divergence:  0.10E-05 at (  16,  11,   2)
       Min divergence: -0.11E-05 at (   5,  28,  11)
       Max VN number:   0.94E-01 at (  20,  30,  10)
       Mesh    6
       Max CFL number:  0.10E+00 at (   6,  21,   8)
       Max divergence:  0.12E-05 at (   9,  16,  10)
       Min divergence: -0.11E-05 at (  16,  14,  14)
       Max VN number:   0.10E+00 at (   1,  14,   9)
       Mesh    7
       Max CFL number:  0.18E+00 at (  16,   9,   1)
       Max divergence:  0.10E-04 at (  12,  10,   2)
       Min divergence: -0.93E-06 at (   3,   3,  12)
       Max VN number:   0.10E+00 at (   5,  20,  15)
       Mesh    8
       Max CFL number:  0.15E+00 at (   3,  23,   4)
       Max divergence:  0.92E-06 at (   4,  25,  14)
       Min divergence: -0.14E-05 at (  14,  26,  14)
       Max VN number:   0.10E+00 at (  17,  30,  14)
       Mesh    9
       Max CFL number:  0.14E+00 at (   8,  20,  13)
       Max divergence:  0.11E-05 at (  20,   9,   8)
       Min divergence: -0.12E-05 at (   1,   4,  14)
       Max VN number:   0.10E+00 at (   4,  30,   3)
       Mesh   10
       Max CFL number:  0.14E+00 at (  12,  16,   8)
       Max divergence:  0.12E-05 at (  15,  17,  12)
       Min divergence: -0.11E-05 at (   8,  28,  14)
       Max VN number:   0.81E-01 at (   9,  13,  15)
 
       Time Step       5   March  4, 2020  13:41:13
       Step Size:    0.289E-01 s, Total Time:      48.14 s
       Pressure Iterations:      1
       Maximum Velocity Error:  0.28E-16 on Mesh   2 at (  12  11  16)
       Maximum Pressure Error:  0.14E+05 on Mesh   7 at (   3  18   3)
       ScaRC: iterations    96, residual  0.82E-08, convergence rate   0.76E+00
       ---------------------------------------------------------------
       Mesh    1
       Max CFL number:  0.98E-01 at (   9,   2,  11)
       Max divergence:  0.16E-05 at (  24,  19,  15)
       Min divergence: -0.11E-05 at (  23,  12,   7)
       Max VN number:   0.87E-01 at (  24,   3,   2)
       Mesh    2
       Max CFL number:  0.87E+00 at (  16,  25,  11)
       Max divergence:  0.95E+01 at (  15,  22,   9)
       Min divergence: -0.28E-05 at (   4,  14,  10)
       Max VN number:   0.60E+00 at (  17,  18,  11)
       Total Heat Release Rate:              0.927 kW
       Radiation Loss to Boundaries:        -0.069 kW
       Mesh    3
       Max CFL number:  0.20E+00 at (   2,  15,  10)
       Max divergence:  0.13E-05 at (   2,  23,  14)
       Min divergence: -0.21E-05 at (   2,  20,  11)
       Max VN number:   0.16E+00 at (   3,   7,  14)
       Mesh    4
       Max CFL number:  0.16E+00 at (  16,   5,  14)
       Max divergence:  0.10E-05 at (   7,  16,   2)
       Min divergence: -0.10E-05 at (  11,   9,   8)
       Max VN number:   0.74E-01 at (  13,   5,   1)
       Mesh    5
       Max CFL number:  0.15E+00 at (  14,   7,   3)
       Max divergence:  0.10E-05 at (  11,   6,  13)
       Min divergence: -0.11E-05 at (   5,  28,  11)
       Max VN number:   0.88E-01 at (  20,  30,  10)
       Mesh    6
       Max CFL number:  0.10E+00 at (   6,  21,   8)
       Max divergence:  0.11E-05 at (   9,  16,  10)
       Min divergence: -0.11E-05 at (  16,  14,  14)
       Max VN number:   0.99E-01 at (   1,  14,   9)
       Mesh    7
       Max CFL number:  0.21E+00 at (  16,   9,   1)
       Max divergence:  0.11E-04 at (  11,  12,   1)
       Min divergence: -0.88E-06 at (   3,   3,  12)
       Max VN number:   0.97E-01 at (   5,  20,  15)
       Mesh    8
       Max CFL number:  0.16E+00 at (   3,  23,   4)
       Max divergence:  0.89E-06 at (   4,  25,  14)
       Min divergence: -0.14E-05 at (  14,  26,  14)
       Max VN number:   0.78E-01 at (  20,  30,   8)
       Mesh    9
       Max CFL number:  0.15E+00 at (   8,  20,  13)
       Max divergence:  0.10E-05 at (  20,   9,   8)
       Min divergence: -0.12E-05 at (   1,   4,  14)
       Max VN number:   0.98E-01 at (   4,  30,   3)
       Mesh   10
       Max CFL number:  0.15E+00 at (  12,  16,   8)
       Max divergence:  0.12E-05 at (  15,  17,  12)
       Min divergence: -0.11E-05 at (   8,  28,  14)
       Max VN number:   0.78E-01 at (  12,  29,  15)
 
       Time Step       6   March  4, 2020  13:41:14
       Step Size:    0.289E-01 s, Total Time:      48.17 s
       Pressure Iterations:      1
       Maximum Velocity Error:  0.21E-16 on Mesh   7 at (  13   9   0)
       Maximum Pressure Error:  0.29E+04 on Mesh   7 at (   3  18   3)
       ScaRC: iterations    98, residual  0.95E-08, convergence rate   0.76E+00
       ---------------------------------------------------------------
       Mesh    1
       Max CFL number:  0.94E-01 at (   9,   2,  11)
       Max divergence:  0.17E-05 at (  24,  19,  15)
       Min divergence: -0.11E-05 at (  23,  12,   7)
       Max VN number:   0.87E-01 at (  24,   3,   2)
       Mesh    2
       Max CFL number:  0.94E+00 at (  16,  25,  12)
       Max divergence:  0.89E+01 at (  15,  22,   9)
       Min divergence: -0.24E+00 at (  16,   6,  11)
       Max VN number:   0.79E+00 at (  17,  15,  11)
       Total Heat Release Rate:              1.221 kW
       Radiation Loss to Boundaries:        -0.277 kW
       Mesh    3
       Max CFL number:  0.21E+00 at (   2,  15,  10)
       Max divergence:  0.14E-05 at (   2,  23,  14)
       Min divergence: -0.23E-05 at (   2,  20,  11)
       Max VN number:   0.18E+00 at (   3,   7,  14)
       Mesh    4
       Max CFL number:  0.16E+00 at (  16,   5,  14)
       Max divergence:  0.99E-06 at (   7,  16,   2)
       Min divergence: -0.10E-05 at (  11,   9,   8)
       Max VN number:   0.72E-01 at (   9,  30,  12)
       Mesh    5
       Max CFL number:  0.16E+00 at (   4,  29,   9)
       Max divergence:  0.10E-05 at (  11,   6,  13)
       Min divergence: -0.10E-05 at (   5,  28,  11)
       Max VN number:   0.79E-01 at (  22,   1,   2)
       Mesh    6
       Max CFL number:  0.96E-01 at (   6,  21,   8)
       Max divergence:  0.11E-05 at (   9,  16,  10)
       Min divergence: -0.11E-05 at (  16,  14,  14)
       Max VN number:   0.98E-01 at (   1,  14,   9)
       Mesh    7
       Max CFL number:  0.24E+00 at (  16,   9,   1)
       Max divergence:  0.12E-04 at (  11,  13,   1)
       Min divergence: -0.84E-06 at (   3,   3,  12)
       Max VN number:   0.93E-01 at (   3,   1,  12)
       Mesh    8
       Max CFL number:  0.17E+00 at (   3,  23,   4)
       Max divergence:  0.86E-06 at (   4,  25,  14)
       Min divergence: -0.13E-05 at (  14,  26,  14)
       Max VN number:   0.73E-01 at (   4,  26,  15)
       Mesh    9
       Max CFL number:  0.16E+00 at (  19,   2,  12)
       Max divergence:  0.10E-05 at (  20,   9,   8)
       Min divergence: -0.12E-05 at (   1,   4,  14)
       Max VN number:   0.82E-01 at (   4,  30,   3)
       Mesh   10
       Max CFL number:  0.16E+00 at (  19,  17,  14)
       Max divergence:  0.12E-05 at (  15,  17,  12)
       Min divergence: -0.11E-05 at (   8,  28,  14)
       Max VN number:   0.75E-01 at (  12,  29,  15)
 
       Time Step       7   March  4, 2020  13:41:17
       Step Size:    0.225E-01 s, Total Time:      48.20 s
       Pressure Iterations:      1
       Maximum Velocity Error:  0.31E-16 on Mesh   2 at (   9  10  16)
       Maximum Pressure Error:  0.19E+05 on Mesh   7 at (   3  18   3)
       ScaRC: iterations   100, residual  0.94E-08, convergence rate   0.75E+00
       ---------------------------------------------------------------
       Mesh    1
       Max CFL number:  0.71E-01 at (   9,   2,  11)
       Max divergence:  0.26E-05 at (  24,  19,  15)
       Min divergence: -0.11E-05 at (  23,  12,   7)
       Max VN number:   0.66E-01 at (  24,   3,   2)
       Mesh    2
       Max CFL number:  0.87E+00 at (  16,  25,  12)
       Max divergence:  0.62E+01 at (   7,  11,   9)
       Min divergence: -0.84E+00 at (  16,   6,  11)
       Max VN number:   0.69E+00 at (  17,  16,  11)
       Total Heat Release Rate:              1.581 kW
       Radiation Loss to Boundaries:        -0.758 kW
       Mesh    3
       Max CFL number:  0.17E+00 at (   2,  15,  10)
       Max divergence:  0.22E-05 at (   2,  23,  14)
       Min divergence: -0.20E-05 at (   2,  15,  11)
       Max VN number:   0.14E+00 at (   3,  16,  11)
       Mesh    4
       Max CFL number:  0.13E+00 at (   6,   6,  14)
       Max divergence:  0.96E-06 at (  12,   5,   2)
       Min divergence: -0.11E-05 at (   1,  21,  13)
       Max VN number:   0.54E-01 at (   9,  30,  12)
       Mesh    5
       Max CFL number:  0.13E+00 at (   4,  29,   9)
       Max divergence:  0.10E-05 at (  11,   6,  13)
       Min divergence: -0.10E-05 at (   5,  28,  11)
       Max VN number:   0.60E-01 at (  20,  30,  10)
       Mesh    6
       Max CFL number:  0.73E-01 at (   6,  21,   8)
       Max divergence:  0.11E-05 at (   9,  16,  10)
       Min divergence: -0.10E-05 at (  16,  14,  14)
       Max VN number:   0.76E-01 at (   1,  14,   9)
       Mesh    7
       Max CFL number:  0.19E+00 at (  16,   9,   1)
       Max divergence:  0.21E-04 at (  11,  12,   1)
       Min divergence: -0.72E-06 at (  24,  10,  14)
       Max VN number:   0.72E-01 at (   3,   1,  12)
       Mesh    8
       Max CFL number:  0.13E+00 at (   3,  23,   4)
       Max divergence:  0.89E-06 at (   4,  25,  14)
       Min divergence: -0.12E-05 at (  14,  26,  14)
       Max VN number:   0.56E-01 at (   4,  26,  15)
       Mesh    9
       Max CFL number:  0.12E+00 at (  19,   2,  12)
       Max divergence:  0.98E-06 at (  20,   9,   8)
       Min divergence: -0.12E-05 at (   1,  28,   9)
       Max VN number:   0.58E-01 at (   4,  30,   3)
       Mesh   10
       Max CFL number:  0.12E+00 at (  19,  17,  14)
       Max divergence:  0.11E-05 at (  15,  17,  12)
       Min divergence: -0.11E-05 at (   8,  28,  14)
       Max VN number:   0.57E-01 at (  15,  30,  10)
 
       Time Step       8   March  4, 2020  13:41:19
       Step Size:    0.225E-01 s, Total Time:      48.22 s
       Pressure Iterations:      1
       Maximum Velocity Error:  0.45E-16 on Mesh   2 at (  13  14  16)
       Maximum Pressure Error:  0.33E+05 on Mesh   7 at (   3  18   3)
       ScaRC: iterations    99, residual  0.89E-08, convergence rate   0.75E+00
       ---------------------------------------------------------------
       Mesh    1
       Max CFL number:  0.70E-01 at (   9,   2,  11)
       Max divergence:  0.32E-05 at (  24,  21,  15)
       Min divergence: -0.10E-05 at (  23,  12,   7)
       Max VN number:   0.66E-01 at (  24,   3,   2)
       Mesh    2
       Max CFL number:  0.82E+00 at (  16,  25,  12)
       Max divergence:  0.31E+01 at (  12,  11,   9)
       Min divergence: -0.11E+01 at (  16,   6,  10)
       Max VN number:   0.59E+00 at (  17,  16,  11)
       Total Heat Release Rate:              1.814 kW
       Radiation Loss to Boundaries:        -1.267 kW
       Mesh    3
       Max CFL number:  0.15E+00 at (   2,  15,  10)
       Max divergence:  0.22E-05 at (   1,  22,  15)
       Min divergence: -0.18E-05 at (   2,  15,  11)
       Max VN number:   0.12E+00 at (   3,   9,  11)
       Mesh    4
       Max CFL number:  0.11E+00 at (   6,   6,  14)
       Max divergence:  0.95E-06 at (   8,  10,   2)
       Min divergence: -0.11E-05 at (   1,  21,  13)
       Max VN number:   0.56E-01 at (  13,   5,   1)
       Mesh    5
       Max CFL number:  0.11E+00 at (   4,  29,   9)
       Max divergence:  0.10E-05 at (  11,   6,  13)
       Min divergence: -0.99E-06 at (   5,  28,  11)
       Max VN number:   0.74E-01 at (  20,  30,  10)
       Mesh    6
       Max CFL number:  0.71E-01 at (   6,  21,   8)
       Max divergence:  0.11E-05 at (   9,  16,  10)
       Min divergence: -0.10E-05 at (  16,  14,  14)
       Max VN number:   0.75E-01 at (   1,  14,   9)
       Mesh    7
       Max CFL number:  0.17E+00 at (  16,   9,   1)
       Max divergence:  0.24E-04 at (  11,  12,   1)
       Min divergence: -0.70E-06 at (  24,  10,  14)
       Max VN number:   0.67E-01 at (   5,  20,  15)
       Mesh    8
       Max CFL number:  0.11E+00 at (   3,  23,   4)
       Max divergence:  0.86E-06 at (  21,  27,  10)
       Min divergence: -0.12E-05 at (  14,  26,  14)
       Max VN number:   0.53E-01 at (   4,  26,  15)
       Mesh    9
       Max CFL number:  0.11E+00 at (  19,   2,  12)
       Max divergence:  0.96E-06 at (  20,   9,   8)
       Min divergence: -0.12E-05 at (   1,  28,   9)
       Max VN number:   0.63E-01 at (   4,  30,   3)
       Mesh   10
       Max CFL number:  0.11E+00 at (  19,  17,  14)
       Max divergence:  0.11E-05 at (  15,  17,  12)
       Min divergence: -0.11E-05 at (   8,  28,  14)
       Max VN number:   0.68E-01 at (  15,  30,  10)
 
       Time Step       9   March  4, 2020  13:41:20
       Step Size:    0.225E-01 s, Total Time:      48.24 s
       Pressure Iterations:      1
       Maximum Velocity Error:  0.10E-16 on Mesh   2 at (  13  15  16)
       Maximum Pressure Error:  0.24E+05 on Mesh   2 at (   7  25   9)
       ScaRC: iterations   102, residual  0.86E-08, convergence rate   0.76E+00
       ---------------------------------------------------------------
       Mesh    1
       Max CFL number:  0.68E-01 at (   9,   2,  11)
       Max divergence:  0.39E-05 at (  24,  19,  14)
       Min divergence: -0.97E-06 at (  20,  13,   5)
       Max VN number:   0.64E-01 at (  24,   3,   2)
       Mesh    2
       Max CFL number:  0.77E+00 at (  16,   6,  11)
       Max divergence:  0.44E+01 at (  12,  11,   9)
       Min divergence: -0.16E+01 at (  16,   6,  10)
       Max VN number:   0.29E+00 at (  17,  16,  11)
       Total Heat Release Rate:              1.968 kW
       Radiation Loss to Boundaries:        -1.366 kW
       Mesh    3
       Max CFL number:  0.11E+00 at (   2,  15,  10)
       Max divergence:  0.27E-05 at (   1,  22,  15)
       Min divergence: -0.14E-05 at (   2,   5,  10)
       Max VN number:   0.97E-01 at (   3,   9,  11)
       Mesh    4
       Max CFL number:  0.91E-01 at (   6,   6,  14)
       Max divergence:  0.95E-06 at (   8,  10,   2)
       Min divergence: -0.11E-05 at (   1,  21,  13)
       Max VN number:   0.65E-01 at (  10,   1,  13)
       Mesh    5
       Max CFL number:  0.91E-01 at (   4,  29,   9)
       Max divergence:  0.10E-05 at (  11,   6,  13)
       Min divergence: -0.98E-06 at (   5,  28,  11)
       Max VN number:   0.83E-01 at (  20,  30,  10)
       Mesh    6
       Max CFL number:  0.69E-01 at (   6,  21,   8)
       Max divergence:  0.10E-05 at (   9,  16,  10)
       Min divergence: -0.10E-05 at (  16,  14,  14)
       Max VN number:   0.74E-01 at (   1,  14,   9)
       Mesh    7
       Max CFL number:  0.12E+00 at (  16,   9,   1)
       Max divergence:  0.27E-04 at (  11,  12,   1)
       Min divergence: -0.70E-06 at (  24,  10,  14)
       Max VN number:   0.69E-01 at (   5,  20,  15)
       Mesh    8
       Max CFL number:  0.92E-01 at (   3,  23,   4)
       Max divergence:  0.86E-06 at (  21,  27,  10)
       Min divergence: -0.12E-05 at (  14,  26,  14)
       Max VN number:   0.76E-01 at (  20,  13,  15)
       Mesh    9
       Max CFL number:  0.89E-01 at (  19,   2,  12)
       Max divergence:  0.95E-06 at (  17,   6,   6)
       Min divergence: -0.11E-05 at (   1,  28,   9)
       Max VN number:   0.69E-01 at (  18,  22,  15)
       Mesh   10
       Max CFL number:  0.90E-01 at (  19,  17,  14)
       Max divergence:  0.11E-05 at (  15,  17,  12)
       Min divergence: -0.11E-05 at (   8,  28,  14)
       Max VN number:   0.77E-01 at (  15,  30,  10)
 
       Time Step      10   March  4, 2020  13:41:22
       Step Size:    0.247E-01 s, Total Time:      48.27 s
       Pressure Iterations:      1
       Maximum Velocity Error:  0.80E-16 on Mesh   2 at (  11  16  16)
       Maximum Pressure Error:  0.57E+05 on Mesh   7 at (   3  18   3)
       ScaRC: iterations   103, residual  0.74E-08, convergence rate   0.75E+00
       ---------------------------------------------------------------
       Mesh    1
       Max CFL number:  0.72E-01 at (   9,   2,  11)
       Max divergence:  0.51E-05 at (  24,  19,  14)
       Min divergence: -0.95E-06 at (  20,  13,   5)
       Max VN number:   0.70E-01 at (  24,   3,   2)
       Mesh    2
       Max CFL number:  0.87E+00 at (  16,   6,  11)
       Max divergence:  0.23E+01 at (  12,  20,  10)
       Min divergence: -0.52E+01 at (   7,  25,   9)
       Max VN number:   0.32E+00 at (  17,  16,  11)
       Total Heat Release Rate:              0.257 kW
       Radiation Loss to Boundaries:        -0.239 kW
       Mesh    3
       Max CFL number:  0.12E+00 at (   2,  15,  10)
       Max divergence:  0.47E-05 at (   1,  22,  15)
       Min divergence: -0.12E-05 at (   2,   5,  10)
       Max VN number:   0.11E+00 at (   3,   9,  11)
       Mesh    4
       Max CFL number:  0.10E+00 at (   6,   6,  14)
       Max divergence:  0.89E-06 at (   8,  10,   2)
       Min divergence: -0.11E-05 at (   1,  21,  13)
       Max VN number:   0.70E-01 at (  10,   1,  13)
       Mesh    5
       Max CFL number:  0.10E+00 at (   4,  29,   9)
       Max divergence:  0.98E-06 at (  11,   6,  13)
       Min divergence: -0.96E-06 at (   5,  28,  11)
       Max VN number:   0.91E-01 at (  20,  30,  10)
       Mesh    6
       Max CFL number:  0.74E-01 at (   6,  21,   8)
       Max divergence:  0.99E-06 at (   9,  16,  10)
       Min divergence: -0.99E-06 at (  16,  14,  14)
       Max VN number:   0.81E-01 at (   1,  14,   9)
       Mesh    7
       Max CFL number:  0.14E+00 at (  16,   9,   1)
       Max divergence:  0.40E-04 at (   7,  14,   1)
       Min divergence: -0.52E-06 at (  24,  10,  14)
       Max VN number:   0.74E-01 at (   5,  20,  15)
       Mesh    8
       Max CFL number:  0.10E+00 at (   3,  23,   4)
       Max divergence:  0.93E-06 at (  12,  17,   6)
       Min divergence: -0.11E-05 at (  14,  26,  14)
       Max VN number:   0.80E-01 at (  20,  13,  15)
       Mesh    9
       Max CFL number:  0.99E-01 at (  19,   2,  12)
       Max divergence:  0.91E-06 at (  17,   6,   6)
       Min divergence: -0.11E-05 at (   1,  28,   9)
       Max VN number:   0.73E-01 at (  18,  22,  15)
       Mesh   10
       Max CFL number:  0.99E-01 at (  19,  17,  14)
       Max divergence:  0.10E-05 at (  15,  17,  12)
       Min divergence: -0.10E-05 at (   8,  28,  14)
       Max VN number:   0.86E-01 at (  15,  30,  10)
 
       Time Step      20   March  4, 2020  13:41:44
       Step Size:    0.121E-01 s, Total Time:      48.44 s
       Pressure Iterations:      1
       Maximum Velocity Error:  0.56E-16 on Mesh   2 at (  16  15  16)
       Maximum Pressure Error:  0.72E+04 on Mesh   2 at (   8  24   9)
       ScaRC: iterations   103, residual  0.54E-08, convergence rate   0.75E+00
       ---------------------------------------------------------------
       Mesh    1
       Max CFL number:  0.29E-01 at (   9,   2,  11)
       Max divergence:  0.18E-04 at (  24,  19,  14)
       Min divergence: -0.85E-06 at (  17,  21,   8)
       Max VN number:   0.32E-01 at (  24,   3,   2)
       Mesh    2
       Max CFL number:  0.98E+00 at (  12,  13,   9)
       Max divergence:  0.33E+02 at (  11,   6,   9)
       Min divergence: -0.76E+01 at (   7,  25,   9)
       Max VN number:   0.41E+00 at (  12,  11,  12)
       Total Heat Release Rate:              0.727 kW
       Radiation Loss to Boundaries:        -0.234 kW
       Mesh    3
       Max CFL number:  0.53E-01 at (   2,  15,  10)
       Max divergence:  0.14E-04 at (   1,  15,  14)
       Min divergence: -0.11E-05 at (   2,   5,  10)
       Max VN number:   0.49E-01 at (   3,   9,  11)
       Mesh    4
       Max CFL number:  0.41E-01 at (  13,   8,   7)
       Max divergence:  0.79E-06 at (   8,  10,   2)
       Min divergence: -0.10E-05 at (   1,  21,  13)
       Max VN number:   0.29E-01 at (  10,   1,  13)
       Mesh    5
       Max CFL number:  0.41E-01 at (   4,  29,   9)
       Max divergence:  0.88E-06 at (  11,   6,  13)
       Min divergence: -0.87E-06 at (  17,   7,  11)
       Max VN number:   0.39E-01 at (  20,  30,  10)
       Mesh    6
       Max CFL number:  0.31E-01 at (   6,  20,   8)
       Max divergence:  0.26E-05 at (  24,  20,   1)
       Min divergence: -0.86E-06 at (  17,   2,   8)
       Max VN number:   0.36E-01 at (   1,  14,   9)
       Mesh    7
       Max CFL number:  0.25E+00 at (  16,  15,   1)
       Max divergence:  0.43E-01 at (  16,  15,   1)
       Min divergence:  0.94E-06 at (   2,  13,   1)
       Max VN number:   0.42E-01 at (  16,  25,   1)
       Mesh    8
       Max CFL number:  0.45E-01 at (   3,  23,   4)
       Max divergence:  0.16E-05 at (   1,  27,   7)
       Min divergence: -0.96E-06 at (  14,  26,  14)
       Max VN number:   0.31E-01 at (  20,  13,  15)
       Mesh    9
       Max CFL number:  0.42E-01 at (  19,   2,  12)
       Max divergence:  0.81E-06 at (  17,   6,   6)
       Min divergence: -0.10E-05 at (   1,  28,   9)
       Max VN number:   0.32E-01 at (   6,   1,   8)
       Mesh   10
       Max CFL number:  0.41E-01 at (  19,  17,  14)
       Max divergence:  0.85E-06 at (  15,  17,  12)
       Min divergence: -0.90E-06 at (   8,  28,  14)
       Max VN number:   0.38E-01 at (  15,  30,  10)
 
       Time Step      30   March  4, 2020  13:42:04
       Step Size:    0.808E-02 s, Total Time:      48.53 s
       Pressure Iterations:      1
       Maximum Velocity Error:  0.11E-15 on Mesh   2 at (  12  11  16)
       Maximum Pressure Error:  0.13E+05 on Mesh   2 at (   7  25  10)
       ScaRC: iterations   104, residual  0.90E-08, convergence rate   0.75E+00
       ---------------------------------------------------------------
       Mesh    1
       Max CFL number:  0.26E-01 at (  24,  14,  14)
       Max divergence:  0.20E-03 at (  24,  20,  13)
       Min divergence: -0.88E-06 at (  23,  12,   7)
       Max VN number:   0.25E-01 at (  24,  13,   2)
       Mesh    2
       Max CFL number:  0.93E+00 at (  13,   8,   9)
       Max divergence:  0.38E+02 at (  16,   6,   9)
       Min divergence: -0.83E+01 at (  12,  21,   9)
       Max VN number:   0.33E+00 at (  14,  11,  13)
       Total Heat Release Rate:              1.151 kW
       Radiation Loss to Boundaries:        -0.378 kW
       Mesh    3
       Max CFL number:  0.46E-01 at (   2,  13,  11)
       Max divergence:  0.19E-03 at (   1,  15,  14)
       Min divergence: -0.13E-05 at (   2,  30,  10)
       Max VN number:   0.45E-01 at (   3,  22,  11)
       Mesh    4
       Max CFL number:  0.33E-01 at (  13,   8,   7)
       Max divergence:  0.81E-06 at (   8,  10,   2)
       Min divergence: -0.76E-06 at (  11,   9,   8)
       Max VN number:   0.16E-01 at (   8,   6,   6)
       Mesh    5
       Max CFL number:  0.33E-01 at (   4,  29,   9)
       Max divergence:  0.77E-06 at (  11,   6,  13)
       Min divergence: -0.93E-06 at (  18,  24,   4)
       Max VN number:   0.18E-01 at (  20,  30,  10)
       Mesh    6
       Max CFL number:  0.22E-01 at (  23,  20,   3)
       Max divergence:  0.10E-04 at (  24,  20,   1)
       Min divergence: -0.63E-06 at (   5,   4,   7)
       Max VN number:   0.23E-01 at (   1,  14,   9)
       Mesh    7
       Max CFL number:  0.72E+00 at (  12,  11,   1)
       Max divergence:  0.68E+00 at (  11,  11,   1)
       Min divergence: -0.30E+01 at (  12,  11,   1)
       Max VN number:   0.24E+00 at (  12,  11,   1)
       Mesh    8
       Max CFL number:  0.39E-01 at (   3,  23,   4)
       Max divergence:  0.10E-04 at (   1,  19,   1)
       Min divergence: -0.57E-06 at (  17,  25,   3)
       Max VN number:   0.16E-01 at (  22,  28,   5)
       Mesh    9
       Max CFL number:  0.34E-01 at (  19,   2,  12)
       Max divergence:  0.80E-06 at (  17,   6,   6)
       Min divergence: -0.77E-06 at (   1,  28,   9)
       Max VN number:   0.17E-01 at (   4,  24,  15)
       Mesh   10
       Max CFL number:  0.33E-01 at (  16,  18,   2)
       Max divergence:  0.75E-06 at (   4,  23,   6)
       Min divergence: -0.96E-06 at (   8,  28,  14)
       Max VN number:   0.18E-01 at (  15,  30,  10)
 
       Time Step      40   March  4, 2020  13:42:24
       Step Size:    0.723E-02 s, Total Time:      48.60 s
       Pressure Iterations:      1
       Maximum Velocity Error:  0.22E-15 on Mesh   7 at (  10   8   0)
       Maximum Pressure Error:  0.13E+05 on Mesh   2 at (   7   8   9)
       ScaRC: iterations   104, residual  0.68E-08, convergence rate   0.75E+00
       ---------------------------------------------------------------
       Mesh    1
       Max CFL number:  0.31E-01 at (  24,  14,  14)
       Max divergence:  0.22E-03 at (  24,  20,  13)
       Min divergence: -0.41E-06 at (  19,  21,   4)
       Max VN number:   0.22E-01 at (  24,  13,   2)
       Mesh    2
       Max CFL number:  0.97E+00 at (  10,  18,   9)
       Max divergence:  0.34E+02 at (  16,  24,   9)
       Min divergence: -0.13E+02 at (   7,  24,   9)
       Max VN number:   0.32E+00 at (  10,   8,  14)
       Total Heat Release Rate:              1.463 kW
       Radiation Loss to Boundaries:        -0.490 kW
       Mesh    3
       Max CFL number:  0.49E-01 at (   2,  13,  11)
       Max divergence:  0.20E-03 at (   1,  19,  14)
       Min divergence: -0.71E-06 at (   7,   1,  13)
       Max VN number:   0.46E-01 at (   3,  16,  11)
       Mesh    4
       Max CFL number:  0.31E-01 at (  16,   5,  14)
       Max divergence:  0.11E-04 at (   1,  17,  15)
       Min divergence: -0.70E-06 at (  20,  10,   3)
       Max VN number:   0.14E-01 at (  14,   4,   6)
       Mesh    5
       Max CFL number:  0.31E-01 at (  11,  11,  14)
       Max divergence:  0.77E-06 at (  11,   6,  13)
       Min divergence: -0.80E-06 at (  17,   7,  11)
       Max VN number:   0.14E-01 at (   8,  19,  12)
       Mesh    6
       Max CFL number:  0.29E-01 at (  24,  12,   1)
       Max divergence:  0.16E-03 at (  24,  26,   4)
       Min divergence:  0.23E-06 at (   4,   8,  14)
       Max VN number:   0.19E-01 at (   1,  14,   9)
       Mesh    7
       Max CFL number:  0.88E+00 at (  14,  11,   2)
       Max divergence:  0.17E+01 at (  13,  12,   1)
       Min divergence: -0.51E+01 at (  14,  11,   2)
       Max VN number:   0.35E+00 at (  14,  11,   1)
       Mesh    8
       Max CFL number:  0.45E-01 at (   1,  18,   2)
       Max divergence:  0.17E-03 at (   1,  21,   4)
       Min divergence:  0.42E-05 at (   1,   1,  15)
       Max VN number:   0.14E-01 at (  22,  28,   5)
       Mesh    9
       Max CFL number:  0.32E-01 at (  19,   2,  12)
       Max divergence:  0.11E-05 at (   1,  13,  15)
       Min divergence: -0.66E-06 at (  12,  26,   4)
       Max VN number:   0.14E-01 at (   4,  24,  15)
       Mesh   10
       Max CFL number:  0.32E-01 at (  16,  18,   2)
       Max divergence:  0.74E-06 at (   4,  23,   6)
       Min divergence: -0.74E-06 at (   8,  28,  14)
       Max VN number:   0.14E-01 at (  19,  23,   5)
 
       Time Step      50   March  4, 2020  13:42:44
       Step Size:    0.561E-02 s, Total Time:      48.67 s
       Pressure Iterations:      1
       Maximum Velocity Error:  0.22E-15 on Mesh   2 at (  12  11  16)
       Maximum Pressure Error:  0.97E+04 on Mesh   2 at (   7   6  10)
       ScaRC: iterations   103, residual  0.76E-08, convergence rate   0.74E+00
       ---------------------------------------------------------------
       Mesh    1
       Max CFL number:  0.34E-01 at (  24,  14,  14)
       Max divergence:  0.37E-03 at (  24,  20,  13)
       Min divergence:  0.14E-06 at (  21,   2,   1)
       Max VN number:   0.14E-01 at (  23,  14,  15)
       Mesh    2
       Max CFL number:  0.95E+00 at (  11,  18,   9)
       Max divergence:  0.35E+02 at (  11,  18,   9)
       Min divergence: -0.79E+01 at (  10,  16,   9)
       Max VN number:   0.30E+00 at (   7,  24,  10)
       Total Heat Release Rate:              1.557 kW
       Radiation Loss to Boundaries:        -0.515 kW
       Mesh    3
       Max CFL number:  0.43E-01 at (   6,  18,  14)
       Max divergence:  0.30E-03 at (   1,  19,  13)
       Min divergence:  0.73E-07 at (  23,  10,  10)
       Max VN number:   0.36E-01 at (   3,  22,  11)
       Mesh    4
       Max CFL number:  0.25E-01 at (  16,   5,  14)
       Max divergence:  0.11E-04 at (   1,  17,  15)
       Min divergence: -0.65E-06 at (  20,  10,   3)
       Max VN number:   0.11E-01 at (   8,  22,   2)
       Mesh    5
       Max CFL number:  0.25E-01 at (  11,  11,  14)
       Max divergence:  0.72E-06 at (  11,   6,  13)
       Min divergence: -0.77E-06 at (  17,   7,  11)
       Max VN number:   0.11E-01 at (  15,  10,  14)
       Mesh    6
       Max CFL number:  0.35E-01 at (  24,  12,   1)
       Max divergence:  0.24E-03 at (  24,  20,   1)
       Min divergence:  0.63E-05 at (   1,   8,  10)
       Max VN number:   0.16E-01 at (  20,  19,   3)
       Mesh    7
       Max CFL number:  0.81E+00 at (  14,  11,   2)
       Max divergence:  0.24E+01 at (  12,  16,   1)
       Min divergence: -0.47E+01 at (  14,  11,   5)
       Max VN number:   0.27E+00 at (  14,  11,   5)
       Total Heat Release Rate:              0.004 kW
       Radiation Loss to Boundaries:        -0.001 kW
       Mesh    8
       Max CFL number:  0.45E-01 at (   1,  13,   3)
       Max divergence:  0.20E-03 at (   1,  19,   1)
       Min divergence:  0.80E-05 at (  24,   1,  10)
       Max VN number:   0.11E-01 at (  21,   1,   3)
       Mesh    9
       Max CFL number:  0.26E-01 at (  14,  18,   5)
       Max divergence:  0.13E-05 at (   1,  27,  14)
       Min divergence: -0.63E-06 at (  17,  14,  11)
       Max VN number:   0.11E-01 at (   6,  14,  12)
       Mesh   10
       Max CFL number:  0.25E-01 at (  16,  18,   2)
       Max divergence:  0.70E-06 at (   4,  23,   6)
       Min divergence: -0.69E-06 at (   9,  19,  11)
       Max VN number:   0.11E-01 at (  19,  23,   5)
 
       Time Step      60   March  4, 2020  13:43:04
       Step Size:    0.489E-02 s, Total Time:      48.72 s
       Pressure Iterations:      1
       Maximum Velocity Error:  0.39E-15 on Mesh   7 at (  11  20   0)
       Maximum Pressure Error:  0.30E+05 on Mesh   7 at (   3  18   3)
       ScaRC: iterations   106, residual  0.80E-08, convergence rate   0.75E+00
       ---------------------------------------------------------------
       Mesh    1
       Max CFL number:  0.41E-01 at (  24,  14,  14)
       Max divergence:  0.51E-03 at (  24,  20,  13)
       Min divergence:  0.40E-06 at (  24,  30,   1)
       Max VN number:   0.13E-01 at (  23,  14,  15)
       Mesh    2
       Max CFL number:  0.89E+00 at (  12,   9,  15)
       Max divergence:  0.38E+02 at (   7,  13,   9)
       Min divergence: -0.10E+02 at (  11,  19,   9)
       Max VN number:   0.46E+00 at (   7,   8,  10)
       Total Heat Release Rate:              1.918 kW
       Radiation Loss to Boundaries:        -0.586 kW
       Mesh    3
       Max CFL number:  0.46E-01 at (   6,  18,  14)
       Max divergence:  0.46E-03 at (   1,  13,  13)
       Min divergence:  0.50E-06 at (  24,  29,  11)
       Max VN number:   0.35E-01 at (   3,  24,  11)
       Mesh    4
       Max CFL number:  0.25E-01 at (   5,   6,  14)
       Max divergence:  0.83E-05 at (   1,  17,  15)
       Min divergence: -0.54E-06 at (  12,  18,  11)
       Max VN number:   0.91E-02 at (   8,  22,   2)
       Mesh    5
       Max CFL number:  0.25E-01 at (  11,  11,  14)
       Max divergence:  0.11E-05 at (   1,  26,  15)
       Min divergence: -0.74E-06 at (  17,   7,  11)
       Max VN number:   0.91E-02 at (   7,   8,   5)
       Mesh    6
       Max CFL number:  0.45E-01 at (  24,  19,   4)
       Max divergence:  0.22E-03 at (  24,  19,   1)
       Min divergence:  0.64E-05 at (   1,   8,   9)
       Max VN number:   0.20E-01 at (  24,   7,   3)
       Mesh    7
       Max CFL number:  0.81E+00 at (  15,  12,   2)
       Max divergence:  0.52E+01 at (  12,  21,   1)
       Min divergence: -0.58E+01 at (  12,  15,   3)
       Max VN number:   0.24E+00 at (  14,  11,   8)
       Total Heat Release Rate:              0.015 kW
       Radiation Loss to Boundaries:        -0.009 kW
       Mesh    8
       Max CFL number:  0.54E-01 at (   1,  14,   4)
       Max divergence:  0.21E-03 at (   1,  11,   1)
       Min divergence:  0.97E-05 at (  24,  30,   1)
       Max VN number:   0.92E-02 at (   3,  23,   4)
       Mesh    9
       Max CFL number:  0.25E-01 at (  14,  18,   5)
       Max divergence:  0.36E-04 at (   1,  16,   4)
       Min divergence:  0.75E-06 at (  24,   9,   1)
       Max VN number:   0.91E-02 at (   6,  14,  12)
       Mesh   10
       Max CFL number:  0.25E-01 at (  16,  18,   2)
       Max divergence:  0.74E-06 at (   1,  26,   7)
       Min divergence: -0.62E-06 at (   9,  19,  11)
       Max VN number:   0.94E-02 at (  19,  23,   5)
 
       Time Step      70   March  4, 2020  13:43:24
       Step Size:    0.388E-02 s, Total Time:      48.77 s
       Pressure Iterations:      1
       Maximum Velocity Error:  0.44E-15 on Mesh   2 at (  13  16  16)
       Maximum Pressure Error:  0.44E+05 on Mesh   7 at (   3  18   3)
       ScaRC: iterations   104, residual  0.95E-08, convergence rate   0.75E+00
       ---------------------------------------------------------------
       Mesh    1
       Max CFL number:  0.41E-01 at (  24,  14,  14)
       Max divergence:  0.64E-03 at (  24,  19,  13)
       Min divergence:  0.94E-06 at (  24,  30,   1)
       Max VN number:   0.11E-01 at (  24,  14,  15)
       Mesh    2
       Max CFL number:  0.81E+00 at (  13,  13,  15)
       Max divergence:  0.39E+02 at (  15,  23,   9)
       Min divergence: -0.99E+01 at (  15,  11,   9)
       Max VN number:   0.37E+00 at (   7,  23,  10)
       Total Heat Release Rate:              2.369 kW
       Radiation Loss to Boundaries:        -0.688 kW
       Mesh    3
       Max CFL number:  0.45E-01 at (   6,  18,  14)
       Max divergence:  0.54E-03 at (   1,  15,  13)
       Min divergence:  0.83E-06 at (  24,   1,  11)
       Max VN number:   0.32E-01 at (   3,  29,  11)
       Mesh    4
       Max CFL number:  0.23E-01 at (   5,   6,  14)
       Max divergence:  0.16E-04 at (   1,  17,   6)
       Min divergence: -0.45E-06 at (  21,  11,  11)
       Max VN number:   0.72E-02 at (   8,  22,   2)
       Mesh    5
       Max CFL number:  0.23E-01 at (  11,  11,  14)
       Max divergence:  0.24E-05 at (   1,   5,   2)
       Min divergence: -0.70E-06 at (  17,   7,  11)
       Max VN number:   0.72E-02 at (   7,   8,   5)
       Mesh    6
       Max CFL number:  0.52E-01 at (  24,  19,   4)
       Max divergence:  0.38E-03 at (  24,  20,   1)
       Min divergence:  0.15E-04 at (   1,   9,  10)
       Max VN number:   0.26E-01 at (  24,   7,   3)
       Mesh    7
       Max CFL number:  0.89E+00 at (  11,  20,   2)
       Max divergence:  0.92E+01 at (  13,  13,   1)
       Min divergence: -0.71E+01 at (  10,  20,   3)
       Max VN number:   0.20E+00 at (  11,  15,   7)
       Total Heat Release Rate:              0.063 kW
       Radiation Loss to Boundaries:        -0.060 kW
       Mesh    8
       Max CFL number:  0.58E-01 at (   1,  11,   6)
       Max divergence:  0.37E-03 at (   1,  14,   1)
       Min divergence:  0.18E-04 at (  24,   1,   1)
       Max VN number:   0.73E-02 at (  14,  15,  14)
       Mesh    9
       Max CFL number:  0.24E-01 at (   3,  26,   8)
       Max divergence:  0.38E-04 at (   1,  16,  15)
       Min divergence:  0.75E-06 at (  24,  28,   1)
       Max VN number:   0.72E-02 at (   6,  14,  12)
       Mesh   10
       Max CFL number:  0.23E-01 at (  16,  18,   2)
       Max divergence:  0.19E-04 at (   1,  27,   9)
       Min divergence: -0.25E-06 at (  23,   8,   1)
       Max VN number:   0.73E-02 at (  19,  23,   5)
 
       Time Step      80   March  4, 2020  13:43:45
       Step Size:    0.306E-02 s, Total Time:      48.80 s
       Pressure Iterations:      1
       Maximum Velocity Error:  0.44E-15 on Mesh   2 at (  12  20  16)
       Maximum Pressure Error:  0.49E+05 on Mesh   6 at (  10  18   3)
       ScaRC: iterations   107, residual  0.67E-08, convergence rate   0.75E+00
       ---------------------------------------------------------------
       Mesh    1
       Max CFL number:  0.38E-01 at (  24,  14,  14)
       Max divergence:  0.69E-03 at (  24,  19,  13)
       Min divergence:  0.13E-05 at (  24,  30,   1)
       Max VN number:   0.94E-02 at (  19,  12,  15)
       Mesh    2
       Max CFL number:  0.71E+00 at (  13,  20,  13)
       Max divergence:  0.48E+02 at (  14,  10,   9)
       Min divergence: -0.90E+01 at (  16,   8,   9)
       Max VN number:   0.32E+00 at (   7,  23,  10)
       Total Heat Release Rate:              2.710 kW
       Radiation Loss to Boundaries:        -0.782 kW
       Mesh    3
       Max CFL number:  0.39E-01 at (   6,  18,  14)
       Max divergence:  0.61E-03 at (   1,  14,  13)
       Min divergence:  0.20E-05 at (  24,   1,  11)
       Max VN number:   0.27E-01 at (   3,  29,  11)
       Mesh    4
       Max CFL number:  0.20E-01 at (   5,   6,  14)
       Max divergence:  0.19E-04 at (   1,  30,   5)
       Min divergence: -0.42E-06 at (  21,  11,  11)
       Max VN number:   0.57E-02 at (   8,  22,   2)
       Mesh    5
       Max CFL number:  0.20E-01 at (  11,  11,  14)
       Max divergence:  0.26E-05 at (   1,   3,   2)
       Min divergence: -0.67E-06 at (  17,   7,  11)
       Max VN number:   0.57E-02 at (   7,   8,   5)
       Mesh    6
       Max CFL number:  0.52E-01 at (  24,  19,   4)
       Max divergence:  0.49E-03 at (  24,  19,   1)
       Min divergence:  0.20E-04 at (   1,   9,   9)
       Max VN number:   0.30E-01 at (  24,   7,   3)
       Mesh    7
       Max CFL number:  0.89E+00 at (  13,  13,   2)
       Max divergence:  0.86E+01 at (  13,  13,   4)
       Min divergence: -0.65E+01 at (  11,  19,   2)
       Max VN number:   0.19E+00 at (  11,  14,  10)
       Total Heat Release Rate:              0.135 kW
       Radiation Loss to Boundaries:        -0.124 kW
       Mesh    8
       Max CFL number:  0.59E-01 at (   1,  15,   5)
       Max divergence:  0.42E-03 at (   1,  14,   1)
       Min divergence:  0.23E-04 at (  24,  23,   1)
       Max VN number:   0.57E-02 at (  14,  15,  14)
       Mesh    9
       Max CFL number:  0.21E-01 at (   3,  26,   8)
       Max divergence:  0.40E-04 at (   1,  29,   4)
       Min divergence:  0.87E-06 at (  24,  28,   1)
       Max VN number:   0.56E-02 at (   6,  14,  12)
       Mesh   10
       Max CFL number:  0.20E-01 at (  16,  18,   2)
       Max divergence:  0.20E-04 at (   1,  29,   9)
       Min divergence: -0.24E-06 at (  23,   8,   1)
       Max VN number:   0.57E-02 at (  12,  25,   6)
 
       Time Step      90   March  4, 2020  13:44:04
       Step Size:    0.306E-02 s, Total Time:      48.83 s
       Pressure Iterations:      1
       Maximum Velocity Error:  0.44E-15 on Mesh   2 at (  13  16  16)
       Maximum Pressure Error:  0.25E+05 on Mesh   2 at (   7   6   9)
       ScaRC: iterations   107, residual  0.97E-08, convergence rate   0.75E+00
       ---------------------------------------------------------------
       Mesh    1
       Max CFL number:  0.43E-01 at (  24,  16,  15)
       Max divergence:  0.84E-03 at (  24,  19,  13)
       Min divergence:  0.20E-05 at (  24,  30,   1)
       Max VN number:   0.10E-01 at (   9,  13,  15)
       Mesh    2
       Max CFL number:  0.82E+00 at (  13,  13,  15)
       Max divergence:  0.53E+02 at (  10,   9,   9)
       Min divergence: -0.94E+01 at (  14,  12,   9)
       Max VN number:   0.31E+00 at (   9,  25,  10)
       Total Heat Release Rate:              2.669 kW
       Radiation Loss to Boundaries:        -0.759 kW
       Mesh    3
       Max CFL number:  0.42E-01 at (   7,  20,  14)
       Max divergence:  0.74E-03 at (   1,  15,  13)
       Min divergence:  0.36E-05 at (  24,  30,  12)
       Max VN number:   0.28E-01 at (   6,  16,  13)
       Mesh    4
       Max CFL number:  0.21E-01 at (   5,   6,  14)
       Max divergence:  0.38E-04 at (   1,   8,   6)
       Min divergence: -0.32E-06 at (  18,  18,  12)
       Max VN number:   0.57E-02 at (   8,  22,   2)
       Mesh    5
       Max CFL number:  0.21E-01 at (   1,   6,  12)
       Max divergence:  0.94E-05 at (   1,   3,   1)
       Min divergence: -0.63E-06 at (  17,   7,  11)
       Max VN number:   0.56E-02 at (   7,   8,   5)
       Mesh    6
       Max CFL number:  0.59E-01 at (  24,  19,   4)
       Max divergence:  0.65E-03 at (  24,  19,   1)
       Min divergence:  0.28E-04 at (   1,   1,  10)
       Max VN number:   0.38E-01 at (  24,   7,   3)
       Mesh    7
       Max CFL number:  0.94E+00 at (  14,  14,   5)
       Max divergence:  0.21E+02 at (  12,  15,   1)
       Min divergence: -0.57E+01 at (  13,  14,   6)
       Max VN number:   0.18E+00 at (  14,  13,   4)
       Total Heat Release Rate:              0.232 kW
       Radiation Loss to Boundaries:        -0.169 kW
       Mesh    8
       Max CFL number:  0.73E-01 at (   1,  16,   6)
       Max divergence:  0.61E-03 at (   1,  16,   4)
       Min divergence:  0.27E-04 at (  24,  30,   1)
       Max VN number:   0.57E-02 at (  15,  15,  14)
       Mesh    9
       Max CFL number:  0.23E-01 at (   3,  26,   8)
       Max divergence:  0.62E-04 at (   1,   4,   4)
       Min divergence:  0.16E-05 at (  24,  28,   1)
       Max VN number:   0.55E-02 at (  17,  17,  12)
       Mesh   10
       Max CFL number:  0.21E-01 at (  16,  18,   2)
       Max divergence:  0.15E-04 at (   1,   2,   9)
       Min divergence: -0.29E-06 at (  22,  16,   2)
       Max VN number:   0.56E-02 at (  12,  25,   6)
 
       Time Step     100   March  4, 2020  13:44:25
       Step Size:    0.246E-02 s, Total Time:      48.86 s
       Pressure Iterations:      1
       Maximum Velocity Error:  0.44E-15 on Mesh   2 at (  12  14  16)
       Maximum Pressure Error:  0.26E+05 on Mesh   6 at (  10   8   3)
       ScaRC: iterations   107, residual  0.59E-08, convergence rate   0.75E+00
       ---------------------------------------------------------------
       Mesh    1
       Max CFL number:  0.39E-01 at (  24,  16,  15)
       Max divergence:  0.92E-03 at (  24,  18,  13)
       Min divergence:  0.32E-05 at (  24,   5,   1)
       Max VN number:   0.87E-02 at (   9,  13,  15)
       Mesh    2
       Max CFL number:  0.71E+00 at (  12,  18,  15)
       Max divergence:  0.60E+02 at (  14,  21,   9)
       Min divergence: -0.11E+02 at (  16,   8,   9)
       Max VN number:   0.27E+00 at (   9,  25,  10)
       Total Heat Release Rate:              2.810 kW
       Radiation Loss to Boundaries:        -0.786 kW
       Mesh    3
       Max CFL number:  0.35E-01 at (   7,   6,  14)
       Max divergence:  0.86E-03 at (   1,  15,  14)
       Min divergence:  0.66E-05 at (   7,   1,  13)
       Max VN number:   0.28E-01 at (   6,  22,  13)
       Mesh    4
       Max CFL number:  0.18E-01 at (   5,   6,  14)
       Max divergence:  0.60E-04 at (   1,   8,   6)
       Min divergence: -0.12E-06 at (  23,  24,  13)
       Max VN number:   0.45E-02 at (   8,  22,   2)
       Mesh    5
       Max CFL number:  0.18E-01 at (  13,   4,  14)
       Max divergence:  0.22E-04 at (   1,   6,   1)
       Min divergence: -0.58E-06 at (  17,   7,  11)
       Max VN number:   0.45E-02 at (   7,   8,   5)
       Mesh    6
       Max CFL number:  0.51E-01 at (  24,  19,   4)
       Max divergence:  0.97E-03 at (  24,  17,   3)
[...]
       Mesh    9
       Max CFL number:  0.19E-01 at (   3,  26,   8)
       Max divergence:  0.86E-04 at (   1,  16,   5)
       Min divergence:  0.22E-05 at (  24,  30,   1)
       Max VN number:   0.44E-02 at (   4,   2,   8)
       Mesh   10
       Max CFL number:  0.17E-01 at (  16,  18,   2)
       Max divergence:  0.31E-04 at (   1,   4,   9)
       Min divergence: -0.23E-06 at (  22,  16,   2)
       Max VN number:   0.45E-02 at (  12,  25,   6)
 
       Time Step     200   March  4, 2020  13:47:39
       Step Size:    0.215E-02 s, Total Time:      49.07 s
       Pressure Iterations:      1
       Maximum Velocity Error:  0.44E-15 on Mesh   7 at (  12  14   0)
       Maximum Pressure Error:  0.43E+05 on Mesh   2 at (  16  25   9)
       ScaRC: iterations   107, residual  0.54E-08, convergence rate   0.75E+00
       ---------------------------------------------------------------
       Mesh    1
       Max CFL number:  0.54E-01 at (  24,  16,  12)
       Max divergence:  0.17E-02 at (  24,  19,  13)
       Min divergence:  0.11E-04 at (  24,   9,   1)
       Max VN number:   0.14E-01 at (  24,  18,  11)
       Mesh    2
       Max CFL number:  0.51E+00 at (  10,  21,   9)
       Max divergence:  0.67E+02 at (   9,   8,   9)
       Min divergence: -0.12E+02 at (  15,  22,   9)
       Max VN number:   0.24E+00 at (   7,  14,  10)
       Total Heat Release Rate:              3.402 kW
       Radiation Loss to Boundaries:        -0.946 kW
       Mesh    3
       Max CFL number:  0.38E-01 at (   1,  21,  14)
       Max divergence:  0.16E-02 at (   1,  17,  14)
       Min divergence:  0.17E-04 at (   7,   1,  13)
       Max VN number:   0.26E-01 at (   6,  29,  13)
       Mesh    4
       Max CFL number:  0.19E-01 at (   2,   5,  15)
       Max divergence:  0.12E-03 at (   1,  23,   6)
       Min divergence:  0.21E-05 at (  24,  16,  13)
       Max VN number:   0.38E-02 at (   1,  29,   2)
       Mesh    5
       Max CFL number:  0.17E-01 at (   2,  22,  10)
       Max divergence:  0.58E-04 at (   1,   6,   2)
       Min divergence:  0.17E-08 at (  20,  14,  13)
       Max VN number:   0.37E-02 at (  20,  16,   2)
       Mesh    6
       Max CFL number:  0.65E+00 at (  24,  25,  15)
       Max divergence:  0.13E+01 at (  19,  14,  15)
       Min divergence: -0.31E+01 at (  19,  16,  15)
       Max VN number:   0.26E+00 at (  24,   5,  15)
       Radiation Loss to Boundaries:         0.001 kW
       Mesh    7
       Max CFL number:  0.94E+00 at (  14,  24,  15)
       Max divergence:  0.28E+02 at (  12,  17,   3)
       Min divergence: -0.86E+01 at (  11,  18,  10)
       Max VN number:   0.28E+00 at (  13,  10,  15)
       Total Heat Release Rate:              0.560 kW
       Radiation Loss to Boundaries:        -0.334 kW
       Mesh    8
       Max CFL number:  0.82E+00 at (   2,   8,  15)
       Max divergence:  0.14E+01 at (   1,  22,  14)
       Min divergence: -0.22E+01 at (   1,  22,  15)
       Max VN number:   0.22E+00 at (   4,   9,  15)
       Total Heat Release Rate:              0.001 kW
       Mesh    9
       Max CFL number:  0.22E-01 at (   1,   5,  10)
       Max divergence:  0.20E-03 at (   1,  13,   5)
       Min divergence:  0.64E-05 at (  24,  16,   1)
       Max VN number:   0.39E-02 at (   4,   2,   8)
       Mesh   10
       Max CFL number:  0.17E-01 at (  13,   7,   3)
       Max divergence:  0.91E-04 at (   1,   8,  11)
       Min divergence:  0.19E-06 at (  24,  15,   1)
       Max VN number:   0.39E-02 at (  22,  29,  14)
 
       Time Step     300   March  4, 2020  13:50:56
       Step Size:    0.166E-02 s, Total Time:      49.26 s
       Pressure Iterations:      1
       Maximum Velocity Error:  0.44E-15 on Mesh   2 at (  12  19  16)
       Maximum Pressure Error:  0.52E+05 on Mesh   2 at (   8   6   9)
       ScaRC: iterations   110, residual  0.90E-08, convergence rate   0.75E+00
       ---------------------------------------------------------------
       Mesh    1
       Max CFL number:  0.57E-01 at (  24,  17,  12)
       Max divergence:  0.20E-02 at (  24,  17,  15)
       Min divergence:  0.29E-04 at (  24,  11,   1)
       Max VN number:   0.14E-01 at (  24,  15,  13)
       Radiation Loss to Boundaries:         0.001 kW
       Mesh    2
       Max CFL number:  0.48E+00 at (   9,  22,   9)
       Max divergence:  0.86E+02 at (   9,  23,   9)
       Min divergence: -0.13E+02 at (  15,  22,   9)
       Max VN number:   0.22E+00 at (   7,  15,  10)
       Total Heat Release Rate:              3.754 kW
       Radiation Loss to Boundaries:        -0.915 kW
       Mesh    3
       Max CFL number:  0.42E-01 at (   1,  30,  15)
       Max divergence:  0.73E-02 at (   1,  30,  15)
       Min divergence:  0.39E-04 at (   6,  30,  13)
       Max VN number:   0.22E-01 at (   2,  14,  12)
       Mesh    4
       Max CFL number:  0.18E-01 at (   1,   5,  15)
       Max divergence:  0.18E-03 at (   1,  10,  15)
       Min divergence:  0.51E-05 at (  24,  16,  12)
       Max VN number:   0.30E-02 at (   3,  29,   2)
       Mesh    5
       Max CFL number:  0.14E-01 at (  14,   4,  14)
       Max divergence:  0.95E-04 at (   1,  26,   3)
       Min divergence:  0.14E-05 at (  24,  16,   8)
       Max VN number:   0.30E-02 at (  13,  29,   2)
       Mesh    6
       Max CFL number:  0.58E+00 at (  24,   7,  15)
       Max divergence:  0.26E+01 at (  24,  23,  14)
       Min divergence: -0.34E+01 at (  24,  16,  14)
       Max VN number:   0.41E+00 at (  14,  28,  15)
       Total Heat Release Rate:              0.001 kW
       Mesh    7
       Max CFL number:  0.86E+00 at (   5,  17,  15)
       Max divergence:  0.18E+02 at (  11,  15,   2)
       Min divergence: -0.98E+01 at (  10,  14,   9)
       Max VN number:   0.18E+00 at (  17,   1,   2)
       Total Heat Release Rate:              0.621 kW
       Radiation Loss to Boundaries:        -0.481 kW
       Mesh    8
       Max CFL number:  0.58E+00 at (  15,   2,  15)
       Max divergence:  0.21E+01 at (  20,   5,  15)
       Min divergence: -0.31E+01 at (   3,  16,  15)
       Max VN number:   0.16E+00 at (   8,  19,  15)
       Radiation Loss to Boundaries:        -0.002 kW
       Mesh    9
       Max CFL number:  0.52E-01 at (   1,   2,  14)
       Max divergence:  0.13E-02 at (   1,  11,  15)
       Min divergence:  0.10E-04 at (  24,  16,   1)
       Max VN number:   0.32E-02 at (  10,  29,  14)
       Mesh   10
       Max CFL number:  0.14E-01 at (   1,   8,   8)
       Max divergence:  0.15E-03 at (   1,   7,  12)
       Min divergence:  0.21E-05 at (  24,  16,   2)
       Max VN number:   0.32E-02 at (  23,  29,  14)
 
       Time Step     400   March  4, 2020  13:54:12
       Step Size:    0.192E-02 s, Total Time:      49.44 s
       Pressure Iterations:      1
       Maximum Velocity Error:  0.44E-15 on Mesh   7 at (  25  15  15)
       Maximum Pressure Error:  0.46E+05 on Mesh   2 at (   7   6   9)
       ScaRC: iterations   109, residual  0.78E-08, convergence rate   0.75E+00
       ---------------------------------------------------------------
       Mesh    1
       Max CFL number:  0.25E+00 at (  20,   1,  15)
       Max divergence:  0.53E+00 at (  22,   1,  13)
       Min divergence: -0.16E+01 at (  18,  30,  13)
       Max VN number:   0.22E+00 at (  19,  30,  14)
       Radiation Loss to Boundaries:         0.001 kW
       Mesh    2
       Max CFL number:  0.54E+00 at (  11,   7,   9)
       Max divergence:  0.90E+02 at (  11,   7,   9)
       Min divergence: -0.11E+02 at (  10,  22,   9)
       Max VN number:   0.22E+00 at (   9,  25,  10)
       Total Heat Release Rate:              2.935 kW
       Radiation Loss to Boundaries:        -0.818 kW
       Mesh    3
       Max CFL number:  0.33E+00 at (   2,  30,  12)
       Max divergence:  0.56E+00 at (   1,  30,  11)
       Min divergence: -0.95E+00 at (   2,  29,  11)
       Max VN number:   0.24E+00 at (   1,  30,  11)
       Mesh    4
       Max CFL number:  0.26E-01 at (   1,  30,  15)
       Max divergence:  0.18E-03 at (   1,  21,  15)
       Min divergence:  0.92E-05 at (  24,  15,  11)
       Max VN number:   0.35E-02 at (  20,  29,   2)
       Mesh    5
       Max CFL number:  0.14E-01 at (   1,   9,  15)
       Max divergence:  0.11E-03 at (   1,   6,   9)
       Min divergence:  0.22E-05 at (  24,  15,  15)
       Max VN number:   0.36E-02 at (  20,  29,   2)
       Mesh    6
       Max CFL number:  0.58E+00 at (  24,  24,  15)
       Max divergence:  0.32E+01 at (  15,  15,  14)
       Min divergence: -0.30E+01 at (  16,  16,  14)
       Max VN number:   0.21E+00 at (  13,   8,  15)
       Radiation Loss to Boundaries:        -0.004 kW
       Mesh    7
       Max CFL number:  0.86E+00 at (  20,  12,  15)
       Max divergence:  0.20E+02 at (  11,  17,   5)
       Min divergence: -0.90E+01 at (  14,  17,  12)
       Max VN number:   0.28E+00 at (  12,  30,   6)
       Total Heat Release Rate:              0.622 kW
       Radiation Loss to Boundaries:        -0.361 kW
       Mesh    8
       Max CFL number:  0.79E+00 at (   1,  14,  15)
       Max divergence:  0.82E+01 at (   3,  14,  13)
       Min divergence: -0.66E+01 at (   3,  14,  14)
       Max VN number:   0.20E+00 at (  12,  14,  15)
       Total Heat Release Rate:              0.005 kW
       Radiation Loss to Boundaries:        -0.023 kW
       Mesh    9
       Max CFL number:  0.42E+00 at (   3,  28,  13)
       Max divergence:  0.96E+00 at (   7,   6,  15)
       Min divergence: -0.14E+01 at (   4,   1,   9)
       Max VN number:   0.14E+00 at (   6,   6,  15)
       Mesh   10
       Max CFL number:  0.16E-01 at (   1,   4,  10)
       Max divergence:  0.16E-03 at (   1,   7,  11)
       Min divergence:  0.22E-05 at (  24,  15,   3)
       Max VN number:   0.37E-02 at (  24,  29,  14)
 
       Time Step     500   March  4, 2020  13:57:28
       Step Size:    0.203E-02 s, Total Time:      49.64 s
       Pressure Iterations:      1
       Maximum Velocity Error:  0.44E-15 on Mesh   2 at (  13  12  16)
       Maximum Pressure Error:  0.31E+05 on Mesh   2 at (  15  24  10)
       ScaRC: iterations   108, residual  0.83E-08, convergence rate   0.75E+00
       ---------------------------------------------------------------
       Mesh    1
       Max CFL number:  0.27E+00 at (  12,   1,  15)
       Max divergence:  0.60E+00 at (   1,   7,  15)
       Min divergence: -0.62E+00 at (   1,   1,  14)
       Max VN number:   0.98E-01 at (  17,   1,  14)
       Radiation Loss to Boundaries:         0.001 kW
       Mesh    2
       Max CFL number:  0.49E+00 at (  10,  17,  15)
       Max divergence:  0.65E+02 at (   9,  15,   9)
       Min divergence: -0.11E+02 at (  15,  16,   9)
       Max VN number:   0.20E+00 at (   7,  24,  10)
       Total Heat Release Rate:              3.241 kW
       Radiation Loss to Boundaries:        -0.822 kW
       Mesh    3
       Max CFL number:  0.19E+00 at (  11,   1,  15)
       Max divergence:  0.47E+00 at (  15,  30,  14)
       Min divergence: -0.58E+00 at (  10,   1,  14)
       Max VN number:   0.14E+00 at (  20,  30,  15)
       Mesh    4
       Max CFL number:  0.37E-01 at (   1,   1,  15)
       Max divergence:  0.69E-02 at (   1,   1,  15)
       Min divergence:  0.63E-05 at (  24,  16,  13)
       Max VN number:   0.64E-02 at (   1,   1,  15)
       Mesh    5
       Max CFL number:  0.20E-01 at (   1,  25,  15)
       Max divergence:  0.11E-03 at (   1,   6,   8)
       Min divergence:  0.18E-05 at (  21,  16,   9)
       Max VN number:   0.38E-02 at (  20,  29,   2)
       Mesh    6
       Max CFL number:  0.66E+00 at (  22,  16,  15)
       Max divergence:  0.65E+01 at (  22,  16,  14)
       Min divergence: -0.65E+01 at (  21,  15,  14)
       Max VN number:   0.27E+00 at (   3,   1,   3)
       Total Heat Release Rate:              0.007 kW
       Radiation Loss to Boundaries:        -0.016 kW
       Mesh    7
       Max CFL number:  0.86E+00 at (  10,  11,  15)
       Max divergence:  0.27E+02 at (  14,  15,   2)
       Min divergence: -0.84E+01 at (  13,  18,  13)
       Max VN number:   0.22E+00 at (  10,   1,   3)
       Total Heat Release Rate:              1.083 kW
       Radiation Loss to Boundaries:        -0.562 kW
       Mesh    8
       Max CFL number:  0.54E+00 at (  16,  30,  15)
       Max divergence:  0.15E+01 at (  24,  10,  13)
       Min divergence: -0.21E+01 at (   2,  17,  15)
       Max VN number:   0.19E+00 at (  16,  30,   7)
       Total Heat Release Rate:              0.001 kW
       Radiation Loss to Boundaries:        -0.004 kW
       Mesh    9
       Max CFL number:  0.49E+00 at (   2,  19,  15)
       Max divergence:  0.13E+01 at (   2,  11,  13)
       Min divergence: -0.23E+01 at (   2,  11,  14)
       Max VN number:   0.20E+00 at (   3,  30,   4)
       Radiation Loss to Boundaries:        -0.002 kW
       Mesh   10
       Max CFL number:  0.44E-01 at (   1,   4,  13)
       Max divergence:  0.16E-03 at (   1,  25,  13)
       Min divergence:  0.23E-05 at (  23,  17,   1)
       Max VN number:   0.40E-02 at (   1,   2,  14)
 
       Time Step     600   March  4, 2020  14:00:45
       Step Size:    0.195E-02 s, Total Time:      49.84 s
       Pressure Iterations:      1
       Maximum Velocity Error:  0.44E-15 on Mesh   2 at (  14  13  16)
       Maximum Pressure Error:  0.42E+05 on Mesh   2 at (   7  25   9)
       ScaRC: iterations   109, residual  0.81E-08, convergence rate   0.75E+00
       ---------------------------------------------------------------
       Mesh    1
       Max CFL number:  0.30E+00 at (   1,  26,  13)
       Max divergence:  0.50E+00 at (   2,   1,  14)
       Min divergence: -0.87E+00 at (   1,   8,  12)
       Max VN number:   0.15E+00 at (   3,  30,  15)
       Radiation Loss to Boundaries:         0.001 kW
       Mesh    2
       Max CFL number:  0.50E+00 at (  14,  16,  15)
       Max divergence:  0.70E+02 at (   8,  25,   9)
       Min divergence: -0.92E+01 at (  13,  22,   9)
       Max VN number:   0.23E+00 at (   7,  14,  10)
       Total Heat Release Rate:              3.870 kW
       Radiation Loss to Boundaries:        -0.931 kW
       Mesh    3
       Max CFL number:  0.15E+00 at (  14,  30,  14)
       Max divergence:  0.13E+00 at (  11,   1,  15)
       Min divergence: -0.18E+00 at (  15,  30,  11)
       Max VN number:   0.97E-01 at (  14,  30,  12)
       Radiation Loss to Boundaries:         0.001 kW
       Mesh    4
       Max CFL number:  0.31E-01 at (   3,   1,  15)
       Max divergence:  0.21E-01 at (   1,  29,  15)
       Min divergence: -0.69E-02 at (   1,  30,  15)
       Max VN number:   0.11E-01 at (   1,  30,  15)
       Mesh    5
       Max CFL number:  0.23E-01 at (   5,  28,  15)
       Max divergence:  0.13E-03 at (   1,   6,   8)
       Min divergence:  0.38E-05 at (  24,  16,   7)
       Max VN number:   0.37E-02 at (  21,  29,   2)
       Mesh    6
       Max CFL number:  0.67E+00 at (  19,  13,  15)
       Max divergence:  0.33E+01 at (  24,  18,  14)
       Min divergence: -0.45E+01 at (  23,  16,  14)
       Max VN number:   0.24E+00 at (  18,   8,  15)
       Total Heat Release Rate:              0.003 kW
       Radiation Loss to Boundaries:        -0.014 kW
       Mesh    7
       Max CFL number:  0.92E+00 at (  14,  16,  15)
       Max divergence:  0.26E+02 at (  12,  12,   3)
       Min divergence: -0.11E+02 at (  14,   9,   9)
       Max VN number:   0.36E+00 at (  15,  23,  15)
       Total Heat Release Rate:              0.987 kW
       Radiation Loss to Boundaries:        -0.600 kW
       Mesh    8
       Max CFL number:  0.54E+00 at (   4,  22,  15)
       Max divergence:  0.34E+01 at (   1,  14,  14)
       Min divergence: -0.36E+01 at (   1,  13,  15)
       Max VN number:   0.13E+00 at (  12,  30,   3)
       Total Heat Release Rate:              0.001 kW
       Radiation Loss to Boundaries:        -0.005 kW
       Mesh    9
       Max CFL number:  0.43E+00 at (   9,  30,  10)
       Max divergence:  0.10E+01 at (  11,  16,  13)
       Min divergence: -0.14E+01 at (  23,  11,  14)
       Max VN number:   0.22E+00 at (  13,  30,   8)
       Radiation Loss to Boundaries:        -0.003 kW
       Mesh   10
       Max CFL number:  0.30E+00 at (   1,  11,  15)
       Max divergence:  0.61E+00 at (   1,  10,  15)
       Min divergence: -0.10E+01 at (   1,  11,  15)
       Max VN number:   0.75E-01 at (   2,   1,  11)
 
       Time Step     685   March  4, 2020  14:03:32
       Step Size:    0.437E-03 s, Total Time:      50.00 s
       Pressure Iterations:      1
       Maximum Velocity Error:  0.44E-15 on Mesh   7 at (  25  12  15)
       Maximum Pressure Error:  0.10E+07 on Mesh   7 at (   3  18   3)
       ScaRC: iterations   109, residual  0.83E-08, convergence rate   0.75E+00
       ---------------------------------------------------------------
       Mesh    1
       Max CFL number:  0.53E-01 at (   3,  14,  14)
       Max divergence:  0.10E+01 at (  12,  12,  15)
       Min divergence: -0.41E+00 at (  11,  21,  11)
       Max VN number:   0.39E-01 at (  10,  14,  15)
       Mesh    2
       Max CFL number:  0.11E+00 at (  13,  10,  14)
       Max divergence:  0.74E+02 at (  10,   7,   9)
       Min divergence: -0.95E+01 at (  15,   9,   9)
       Max VN number:   0.33E-01 at (  16,  20,  10)
       Total Heat Release Rate:              3.625 kW
       Radiation Loss to Boundaries:        -0.785 kW
       Mesh    3
       Max CFL number:  0.29E-01 at (  16,  30,  15)
       Max divergence:  0.62E-01 at (  15,   1,  14)
       Min divergence: -0.12E+00 at (  16,   1,  15)
       Max VN number:   0.97E-02 at (  16,   1,  14)
       Radiation Loss to Boundaries:         0.001 kW
       Mesh    4
       Max CFL number:  0.97E-02 at (   2,  30,  15)
       Max divergence:  0.25E-01 at (   4,  30,  14)
       Min divergence: -0.11E-01 at (   1,  30,  15)
       Max VN number:   0.86E-02 at (   4,  30,  15)
       Mesh    5
       Max CFL number:  0.91E-02 at (  11,  22,  15)
       Max divergence:  0.14E-03 at (   1,   3,   8)
       Min divergence:  0.38E-05 at (  15,  13,  15)
       Max VN number:   0.96E-03 at (   1,  30,  15)
       Mesh    6
       Max CFL number:  0.14E+00 at (  20,  13,  15)
       Max divergence:  0.19E+01 at (   1,  15,  15)
       Min divergence: -0.21E+01 at (  22,   6,  14)
       Max VN number:   0.81E-01 at (  18,  11,  15)
       Radiation Loss to Boundaries:        -0.011 kW
       Mesh    7
       Max CFL number:  0.21E+00 at (  16,  16,  15)
       Max divergence:  0.27E+02 at (  13,  11,   4)
       Min divergence: -0.10E+02 at (  16,  17,   3)
       Max VN number:   0.48E-01 at (   2,  30,   3)
       Total Heat Release Rate:              1.116 kW
       Radiation Loss to Boundaries:        -0.646 kW
       Mesh    8
       Max CFL number:  0.15E+00 at (   3,  10,  15)
       Max divergence:  0.66E+01 at (   1,  14,  14)
       Min divergence: -0.69E+01 at (   5,  11,  14)
       Max VN number:   0.44E-01 at (  14,   1,   4)
       Total Heat Release Rate:              0.010 kW
       Radiation Loss to Boundaries:        -0.020 kW
       Mesh    9
       Max CFL number:  0.89E-01 at (  15,   6,  15)
       Max divergence:  0.94E+00 at (   6,  30,   7)
       Min divergence: -0.11E+01 at (   4,  30,   7)
       Max VN number:   0.47E-01 at (   7,  30,   6)
       Radiation Loss to Boundaries:        -0.003 kW
       Mesh   10
       Max CFL number:  0.59E-01 at (   3,  10,  14)
       Max divergence:  0.56E+00 at (   8,  13,  12)
       Min divergence: -0.86E+00 at (  11,  11,  14)
       Max VN number:   0.35E-01 at (   1,   1,   9)
 


 DEVICE Activation Times

   1  active05                                                    No Activation


 CONTROL Activation Times

   1  MY PID                                                      F No Activation


 Time Stepping Wall Clock Time (s):     1347.864
 Total Elapsed Wall Clock Time (s):     1353.115

STOP: FDS completed successfully (CHID: uscarc10b_double)
