
 Fire Dynamics Simulator

 Current Date     : October 28, 2020  13:31:23
 Revision         : -dirty-master
 Revision Date    : Wed Oct 28 10:57:14 2020 +0100
 Compiler         : Intel ifort 18.0.1
 Compilation Date : Oct 28, 2020 12:21:14

 MPI Enabled;    Number of MPI Processes:       8
 OpenMP Enabled; Number of OpenMP Threads:      2

 MPI version: 3.1
 MPI library version: Intel(R) MPI Library 2018 Update 1 for Linux* OS


 Job TITLE        : Flow through a duct, test of unstructured ScaRC solver
 Job ID string    : duct_flow_mgm_expol


 Grid Dimensions, Mesh     1

   Cells in the X Direction            16
   Cells in the Y Direction            16
   Cells in the Z Direction            16
   Number of Grid Cells              4096


 Physical Dimensions, Mesh     1

   Length (m)                       3.200
   Width  (m)                       3.200
   Height (m)                       3.200
   Initial Time Step (s)            0.125

 Grid Dimensions, Mesh     2

   Cells in the X Direction            16
   Cells in the Y Direction            16
   Cells in the Z Direction            16
   Number of Grid Cells              4096


 Physical Dimensions, Mesh     2

   Length (m)                       3.200
   Width  (m)                       3.200
   Height (m)                       3.200
   Initial Time Step (s)            0.125

 Grid Dimensions, Mesh     3

   Cells in the X Direction            16
   Cells in the Y Direction            16
   Cells in the Z Direction            16
   Number of Grid Cells              4096


 Physical Dimensions, Mesh     3

   Length (m)                       3.200
   Width  (m)                       3.200
   Height (m)                       3.200
   Initial Time Step (s)            0.125

 Grid Dimensions, Mesh     4

   Cells in the X Direction            16
   Cells in the Y Direction            16
   Cells in the Z Direction            16
   Number of Grid Cells              4096


 Physical Dimensions, Mesh     4

   Length (m)                       3.200
   Width  (m)                       3.200
   Height (m)                       3.200
   Initial Time Step (s)            0.125

 Grid Dimensions, Mesh     5

   Cells in the X Direction            16
   Cells in the Y Direction            16
   Cells in the Z Direction            16
   Number of Grid Cells              4096


 Physical Dimensions, Mesh     5

   Length (m)                       3.200
   Width  (m)                       3.200
   Height (m)                       3.200
   Initial Time Step (s)            0.125

 Grid Dimensions, Mesh     6

   Cells in the X Direction            16
   Cells in the Y Direction            16
   Cells in the Z Direction            16
   Number of Grid Cells              4096


 Physical Dimensions, Mesh     6

   Length (m)                       3.200
   Width  (m)                       3.200
   Height (m)                       3.200
   Initial Time Step (s)            0.125

 Grid Dimensions, Mesh     7

   Cells in the X Direction            16
   Cells in the Y Direction            16
   Cells in the Z Direction            16
   Number of Grid Cells              4096


 Physical Dimensions, Mesh     7

   Length (m)                       3.200
   Width  (m)                       3.200
   Height (m)                       3.200
   Initial Time Step (s)            0.125

 Grid Dimensions, Mesh     8

   Cells in the X Direction            16
   Cells in the Y Direction            16
   Cells in the Z Direction            16
   Number of Grid Cells              4096


 Physical Dimensions, Mesh     8

   Length (m)                       3.200
   Width  (m)                       3.200
   Height (m)                       3.200
   Initial Time Step (s)            0.125

Total Number of Grid Cells         32768


 Miscellaneous Parameters

   Simulation Start Time (s)          0.0
   Simulation End Time (s)           60.0
   LES Calculation
   Eddy Viscosity:           Deardorff Model (C_DEARDORFF = 0.10)
   Near-wall Eddy Viscosity: Smagorinsky with Van Driest damping (C_SMAGORINSKY = 0.20)
   Turbulent Prandtl Number:         0.50
   Turbulent Schmidt Number:         0.50
   Ambient Temperature (C):         20.00


 Mass Fraction Transformation Matrix to Convert Species Mixtures (Columns) to Primitive Species (Rows)

                         AIR     
   NITROGEN              0.762470
   OXYGEN                0.230997
   CARBON DIOXIDE        0.000591
   WATER VAPOR           0.005941


 Primitive Species Information

   NITROGEN
   Gas Species
   Molecular Weight (g/mol)            28.01340
   Ambient Density (kg/m^3)            1.165
   Enthalpy of Formation (J/kg)        0.00E+00

   OXYGEN
   Gas Species
   Molecular Weight (g/mol)            31.99880
   Ambient Density (kg/m^3)            1.330
   Enthalpy of Formation (J/kg)        0.00E+00

   CARBON DIOXIDE
   Gas Species
   Molecular Weight (g/mol)            44.00950
   Ambient Density (kg/m^3)            1.830
   Enthalpy of Formation (J/kg)       -8.94E+06

   WATER VAPOR
   Gas Species
   Molecular Weight (g/mol)            18.01528
   Ambient Density (kg/m^3)            0.749
   Enthalpy of Formation (J/kg)       -1.34E+07


 Tracked (Lumped) Species Information

   AIR
   Molecular Weight (g/mol)            28.75199
   Ambient Density (kg/m^3)            1.195
   Initial Mass Fraction               1.000
   Enthalpy of Formation (J/kg)     -8.50E+04

   Sub Species                    Mass Fraction     Mole Fraction
   NITROGEN                       7.624701E-01      7.825730E-01
   OXYGEN                         2.309974E-01      2.075589E-01
   CARBON DIOXIDE                 5.914651E-04      3.864120E-04
   WATER VAPOR                    5.940984E-03      9.481679E-03
 
     Viscosity (kg/m/s) Ambient,  293 K:  1.80E-05
                                  500 K:  2.61E-05
                                 1000 K:  4.13E-05
                                 1500 K:  5.37E-05
   Therm. Cond. (W/m/K) Ambient,  293 K:  2.56E-02
                                  500 K:  3.81E-02
                                 1000 K:  6.69E-02
                                 1500 K:  9.25E-02
        Enthalpy (J/kg) Ambient,  293 K: -9.01E+04
                                  500 K:  1.22E+05
                                 1000 K:  6.72E+05
                                 1500 K:  1.27E+06
    Spec. Heat (J/kg/K) Ambient,  293 K:  1.02E+03
                                  500 K:  1.04E+03
                                 1000 K:  1.16E+03
                                 1500 K:  1.23E+03
   Diff. Coeff. (m^2/s) Ambient,  293 K:  1.99E-05
                                  500 K:  4.96E-05
                                 1000 K:  1.58E-04
                                 1500 K:  3.09E-04


 Material Information


 Surface Conditions

   0 INERT (DEFAULT)

   1 DUCT

   2 OPEN
     Passive Vent to Atmosphere

   3 MIRROR
     Symmetry Plane

   4 INTERPOLATED

   5 PERIODIC

   6 HVAC

   7 MASSLESS TRACER

   8 DROPLET

   9 EVACUATION_OUTFLOW
     Normal Velocity (m/s)         0.000

  10 MASSLESS TARGET

  11 PERIODIC FLOW ONLY


 Cut-off Density and Temperature

    Minimum Temperature:   -10.0 C
    Maximum Temperature:  2726.8 C
    Minimum Density:  1.195E-01 kg/m3
    Maximum Density:  2.663E+00 kg/m3


 Device Coordinates

     1 Coords:      1.000000      1.500000      1.500000, Make: null, ID: flow_in, Quantity: VOLUME FLOW +
     2 Coords:      1.000000      1.500000      4.500000, Make: null, ID: flow_out, Quantity: VOLUME FLOW -
     3 Coords:      0.000000      0.000000      0.000000, Make: null, ID: error, Quantity: MAXIMUM VELOCITY ERROR
     4 Coords:      0.000000      0.000000      0.000000, Make: null, ID: iter, Quantity: PRESSURE ITERATIONS
     5 Coords:      0.000000      0.000000      0.000000, Make: null, ID: cpu, Quantity: CPU TIME


 Slice File Information, Mesh     1

   Sampling Interval (s)             0.060

   1 Nodes:   0  16   9   9   0  16, Quantity: VELOCITY
   2 Nodes:   0  16   9   9   0  16, Quantity: U-VELOCITY
   3 Nodes:   0  16   9   9   0  16, Quantity: V-VELOCITY
   4 Nodes:   0  16   9   9   0  16, Quantity: W-VELOCITY
   5 Nodes:   0  16   9   9   0  16, Quantity: H
   6 Nodes:   0  16   0  16   9   9, Quantity: VELOCITY
   7 Nodes:   0  16   0  16   9   9, Quantity: U-VELOCITY
   8 Nodes:   0  16   0  16   9   9, Quantity: V-VELOCITY
   9 Nodes:   0  16   0  16   9   9, Quantity: W-VELOCITY
  10 Nodes:   0  16   0  16   9   9, Quantity: H


 Boundary File Information

   Sampling Interval (s)             0.120

   1 Quantity: VELOCITY ERROR


 USCARC Information

   Discretization             STRUCTURED
   Global solver                     MGM
   Storage technique             COMPACT
 
 

 Run Time Diagnostics

       Time Step       1   October 28, 2020  13:31:23
       Step Size:    0.125E+00 s, Total Time:       0.12 s
       Pressure Iterations:      1
       Maximum Velocity Error:  0.43E-18 on Mesh   3 at (   8  10  17)
       Maximum Pressure Error:  0.65E+00 on Mesh   1 at (   9  11  11)
       ScaRC: iterations    30, residual  0.53E-08, convergence rate   0.50E+00
       ---------------------------------------------------------------
       Mesh    1
       Max CFL number:  0.12E-01 at (  10,  11,   6)
       Max divergence:  0.78E-02 at (  16,   7,  11)
       Min divergence: -0.11E-01 at (   8,   7,   7)
       Max div. error:  0.11E-01 at (   8,   7,   7)
       Max VN number:   0.94E-02 at (   4,   6,   5)
       Mesh    2
       Max CFL number:  0.11E-01 at (  15,  15,  15)
       Max divergence:  0.95E-02 at (   5,  12,   7)
       Min divergence: -0.15E-01 at (  10,   7,   7)
       Max div. error:  0.15E-01 at (  10,   7,   7)
       Max VN number:   0.76E-02 at (  10,   3,   7)
       Mesh    3
       Max CFL number:  0.11E-01 at (  10,   8,  13)
       Max divergence:  0.98E-02 at (   7,  10,   7)
       Min divergence: -0.15E-01 at (   7,  10,  16)
       Max div. error:  0.15E-01 at (   7,  10,  16)
       Max VN number:   0.87E-02 at (   4,   6,  11)
       Mesh    4
       Max CFL number:  0.11E-01 at (  15,  14,   3)
       Max divergence:  0.13E-01 at (   6,   4,   7)
       Min divergence: -0.10E-01 at (   3,   6,   7)
       Max div. error:  0.13E-01 at (   6,   4,   7)
       Max VN number:   0.77E-02 at (   6,  15,   7)
       Mesh    5
       Max CFL number:  0.11E-01 at (  15,   5,   7)
       Max divergence:  0.13E-01 at (  11,  11,   6)
       Min divergence: -0.11E-01 at (   9,   7,  10)
       Max div. error:  0.13E-01 at (  11,  11,   6)
       Max VN number:   0.82E-02 at (   4,  10,  10)
       Mesh    6
       Max CFL number:  0.11E-01 at (   8,   6,  12)
       Max divergence:  0.13E-01 at (  10,   7,   6)
       Min divergence: -0.13E-01 at (  10,  16,  10)
       Max div. error:  0.13E-01 at (  10,  16,  10)
       Max VN number:   0.89E-02 at (   9,   5,  13)
       Mesh    7
       Max CFL number:  0.11E-01 at (  11,   8,   4)
       Max divergence:  0.12E-01 at (   7,   6,   2)
       Min divergence: -0.99E-02 at (   7,  10,   1)
       Max div. error:  0.12E-01 at (   7,   6,   2)
       Max VN number:   0.85E-02 at (   8,   5,  14)
       Mesh    8
       Max CFL number:  0.11E-01 at (   7,   5,   9)
       Max divergence:  0.13E-01 at (   6,   2,   6)
       Min divergence: -0.11E-01 at (   5,   5,   6)
       Max div. error:  0.13E-01 at (   6,   2,   6)
       Max VN number:   0.82E-02 at (   2,  15,   7)
 
       Time Step       2   October 28, 2020  13:31:24
       Step Size:    0.125E+00 s, Total Time:       0.25 s
       Pressure Iterations:      1
       Maximum Velocity Error:  0.43E-18 on Mesh   6 at (  11  17   8)
       Maximum Pressure Error:  0.87E+02 on Mesh   1 at (   8   7   7)
       ScaRC: iterations    32, residual  0.45E-08, convergence rate   0.50E+00
       ---------------------------------------------------------------
       Mesh    1
       Max CFL number:  0.78E-01 at (   8,   7,   7)
       Max divergence:  0.34E+00 at (   6,   9,   9)
       Min divergence: -0.39E+00 at (   8,  11,   7)
       Max div. error:  0.39E+00 at (   8,  11,   7)
       Max VN number:   0.94E-02 at (   4,   6,   5)
       Mesh    2
       Max CFL number:  0.11E-01 at (  15,  14,  15)
       Max divergence:  0.26E-01 at (   1,   6,   9)
       Min divergence: -0.17E+00 at (   1,   7,   7)
       Max div. error:  0.17E+00 at (   1,   7,   7)
       Max VN number:   0.75E-02 at (  10,   3,   7)
       Mesh    3
       Max CFL number:  0.11E-01 at (  10,   8,  13)
       Max divergence:  0.66E-02 at (   8,   1,   9)
       Min divergence: -0.39E-02 at (   7,  10,  16)
       Max div. error:  0.66E-02 at (   8,   1,   9)
       Max VN number:   0.87E-02 at (   4,   6,  11)
       Mesh    4
       Max CFL number:  0.11E-01 at (  15,  14,   3)
       Max divergence:  0.23E-02 at (   1,   6,  11)
       Min divergence: -0.42E-02 at (  10,   1,   9)
       Max div. error:  0.42E-02 at (  10,   1,   9)
       Max VN number:   0.77E-02 at (   6,  15,   7)
       Mesh    5
       Max CFL number:  0.11E-01 at (  15,   5,   7)
       Max divergence:  0.66E-02 at (   8,   9,   1)
       Min divergence: -0.15E-02 at (  16,   7,   5)
       Max div. error:  0.66E-02 at (   8,   9,   1)
       Max VN number:   0.82E-02 at (   4,  10,  10)
       Mesh    6
       Max CFL number:  0.11E-01 at (   8,   6,  12)
       Max divergence:  0.44E-02 at (  10,   7,   6)
       Min divergence: -0.49E-02 at (  10,  16,  10)
       Max div. error:  0.50E-02 at (  10,  16,  10)
       Max VN number:   0.88E-02 at (   9,   5,  13)
       Mesh    7
       Max CFL number:  0.11E-01 at (  11,   8,   3)
       Max divergence:  0.13E-02 at (  11,  10,   1)
       Min divergence: -0.24E-02 at (   7,  10,   1)
       Max div. error:  0.24E-02 at (   7,  10,   1)
       Max VN number:   0.85E-02 at (   8,   5,  14)
       Mesh    8
       Max CFL number:  0.11E-01 at (   6,   5,   9)
       Max divergence:  0.31E-02 at (  10,  10,   6)
       Min divergence: -0.47E-02 at (  10,   1,  10)
       Max div. error:  0.47E-02 at (  10,   1,  10)
       Max VN number:   0.81E-02 at (   2,  15,   7)
 
       Time Step       3   October 28, 2020  13:31:24
       Step Size:    0.125E+00 s, Total Time:       0.38 s
       Pressure Iterations:      1
       Maximum Velocity Error:  0.14E-16 on Mesh   1 at (  17  10   9)
       Maximum Pressure Error:  0.15E+03 on Mesh   1 at (   8  11   7)
       ScaRC: iterations    32, residual  0.87E-08, convergence rate   0.50E+00
       ---------------------------------------------------------------
       Mesh    1
       Max CFL number:  0.16E+00 at (   8,   7,   7)
       Max divergence:  0.72E+00 at (   6,   9,   9)
       Min divergence: -0.72E+00 at (   8,  11,   7)
       Max div. error:  0.73E+00 at (   8,  11,   7)
       Max VN number:   0.15E-01 at (   6,  12,   8)
       Mesh    2
       Max CFL number:  0.30E-01 at (   1,  10,  11)
       Max divergence:  0.12E+00 at (   1,   9,   6)
       Min divergence: -0.51E+00 at (   1,   7,   7)
       Max div. error:  0.51E+00 at (   1,   7,   7)
       Max VN number:   0.75E-02 at (  10,   3,   7)
       Mesh    3
       Max CFL number:  0.11E-01 at (  10,   8,  13)
       Max divergence:  0.60E-02 at (   9,   1,   8)
       Min divergence: -0.45E-02 at (  16,  10,   7)
       Max div. error:  0.60E-02 at (   9,   1,   8)
       Max VN number:   0.87E-02 at (   4,   6,  11)
       Mesh    4
       Max CFL number:  0.11E-01 at (  15,  14,   3)
       Max divergence:  0.94E-02 at (  11,   1,   9)
       Min divergence: -0.34E-01 at (  10,   1,   7)
       Max div. error:  0.34E-01 at (  10,   1,   7)
       Max VN number:   0.77E-02 at (   6,  15,   7)
       Mesh    5
       Max CFL number:  0.11E-01 at (  16,   5,   7)
       Max divergence:  0.45E-02 at (  16,  11,   6)
       Min divergence: -0.25E-02 at (  16,   9,   5)
       Max div. error:  0.45E-02 at (  16,  11,   6)
       Max VN number:   0.82E-02 at (   4,  10,  10)
       Mesh    6
       Max CFL number:  0.11E-01 at (   8,   6,  12)
       Max divergence:  0.44E-02 at (   1,  11,   6)
       Min divergence: -0.25E-02 at (   1,   9,   5)
       Max div. error:  0.44E-02 at (   1,  11,   6)
       Max VN number:   0.88E-02 at (   9,   5,  13)
       Mesh    7
       Max CFL number:  0.11E-01 at (  11,   8,   3)
       Max divergence:  0.22E-02 at (  11,   6,   1)
       Min divergence: -0.12E-02 at (   7,  10,   1)
       Max div. error:  0.22E-02 at (  11,   6,   1)
       Max VN number:   0.84E-02 at (   8,   5,  14)
       Mesh    8
       Max CFL number:  0.11E-01 at (   6,   5,   9)
       Max divergence:  0.28E-02 at (   6,   1,   6)
       Min divergence: -0.25E-02 at (  10,   1,  10)
       Max div. error:  0.28E-02 at (   6,   1,   6)
       Max VN number:   0.81E-02 at (   2,  15,   7)
 
       Time Step       4   October 28, 2020  13:31:25
       Step Size:    0.125E+00 s, Total Time:       0.50 s
       Pressure Iterations:      1
       Maximum Velocity Error:  0.87E-18 on Mesh   2 at (   1  12  17)
       Maximum Pressure Error:  0.20E+03 on Mesh   1 at (   8  11   7)
       ScaRC: iterations    33, residual  0.49E-08, convergence rate   0.49E+00
       ---------------------------------------------------------------
       Mesh    1
       Max CFL number:  0.25E+00 at (   6,  10,  10)
       Max divergence:  0.11E+01 at (   6,   9,  10)
       Min divergence: -0.10E+01 at (   8,  11,   7)
       Max div. error:  0.11E+01 at (   6,  10,   9)
       Max VN number:   0.39E-01 at (   8,  11,  11)
       Mesh    2
       Max CFL number:  0.54E-01 at (   1,   9,   7)
       Max divergence:  0.24E+00 at (   1,   8,   6)
       Min divergence: -0.92E+00 at (   1,   7,   7)
       Max div. error:  0.93E+00 at (   1,   7,   7)
       Max VN number:   0.79E-02 at (   1,   9,   8)
       Mesh    3
       Max CFL number:  0.11E-01 at (  10,   8,  13)
       Max divergence:  0.75E-02 at (  16,   1,   8)
       Min divergence: -0.13E-01 at (  16,  10,   7)
       Max div. error:  0.13E-01 at (  16,  10,   7)
       Max VN number:   0.86E-02 at (   4,   6,  11)
       Mesh    4
       Max CFL number:  0.11E-01 at (  15,  14,   3)
       Max divergence:  0.28E-01 at (   8,   1,   6)
       Min divergence: -0.97E-01 at (  10,   1,   7)
       Max div. error:  0.97E-01 at (  10,   1,   7)
       Max VN number:   0.77E-02 at (   6,  15,   7)
       Mesh    5
       Max CFL number:  0.11E-01 at (  12,  12,  11)
       Max divergence:  0.78E-02 at (  16,  11,   6)
       Min divergence: -0.20E-02 at (  16,  10,   5)
       Max div. error:  0.79E-02 at (  16,  11,   6)
       Max VN number:   0.81E-02 at (   4,  10,  10)
       Mesh    6
       Max CFL number:  0.11E-01 at (   8,   6,  12)
       Max divergence:  0.78E-02 at (   1,  11,   6)
       Min divergence: -0.23E-02 at (   7,  16,   5)
       Max div. error:  0.79E-02 at (   1,  11,   6)
       Max VN number:   0.88E-02 at (   9,   5,  13)
       Mesh    7
       Max CFL number:  0.11E-01 at (  11,   8,   3)
       Max divergence:  0.30E-02 at (  16,   6,   6)
       Min divergence: -0.21E-02 at (   7,  10,   1)
       Max div. error:  0.30E-02 at (  16,   6,   6)
       Max VN number:   0.84E-02 at (   8,   5,  14)
       Mesh    8
       Max CFL number:  0.11E-01 at (   2,  12,   5)
       Max divergence:  0.44E-02 at (   6,   1,   6)
       Min divergence: -0.23E-02 at (   6,   1,   5)
       Max div. error:  0.45E-02 at (   6,   1,   6)
       Max VN number:   0.81E-02 at (   2,  15,   7)
 
       Time Step       5   October 28, 2020  13:31:25
       Step Size:    0.125E+00 s, Total Time:       0.62 s
       Pressure Iterations:      1
       Maximum Velocity Error:  0.28E-16 on Mesh   1 at (  17  11  10)
       Maximum Pressure Error:  0.25E+03 on Mesh   1 at (   8  11   7)
       ScaRC: iterations    33, residual  0.75E-08, convergence rate   0.49E+00
       ---------------------------------------------------------------
       Mesh    1
       Max CFL number:  0.40E+00 at (   6,   8,  10)
       Max divergence:  0.15E+01 at (   6,   9,   9)
       Min divergence: -0.13E+01 at (   8,  11,   7)
       Max div. error:  0.16E+01 at (   6,  10,  10)
       Max VN number:   0.16E+00 at (   6,  11,  11)
       Mesh    2
       Max CFL number:  0.12E+00 at (   1,   7,   9)
       Max divergence:  0.37E+00 at (   1,   6,   7)
       Min divergence: -0.13E+01 at (   1,   7,   7)
       Max div. error:  0.13E+01 at (   1,   7,   7)
       Max VN number:   0.22E-01 at (   1,   7,   9)
       Mesh    3
       Max CFL number:  0.11E-01 at (  10,   8,  13)
       Max divergence:  0.90E-02 at (   6,   1,   8)
       Min divergence: -0.28E-01 at (  16,  10,   7)
       Max div. error:  0.28E-01 at (  16,  10,   7)
       Max VN number:   0.86E-02 at (   4,   6,  11)
       Mesh    4
       Max CFL number:  0.15E-01 at (   7,   1,  11)
       Max divergence:  0.59E-01 at (   5,   1,   7)
       Min divergence: -0.19E+00 at (  10,   1,   7)
       Max div. error:  0.19E+00 at (  10,   1,   7)
       Max VN number:   0.77E-02 at (   6,  15,   7)
       Mesh    5
       Max CFL number:  0.11E-01 at (  12,  12,  11)
       Max divergence:  0.12E-01 at (  16,  11,   6)
       Min divergence: -0.26E-02 at (   6,  16,   1)
       Max div. error:  0.12E-01 at (  16,  11,   6)
       Max VN number:   0.81E-02 at (   4,  10,  10)
       Mesh    6
       Max CFL number:  0.11E-01 at (   8,   6,  12)
       Max divergence:  0.12E-01 at (   1,  11,   6)
       Min divergence: -0.26E-02 at (   1,   7,  10)
       Max div. error:  0.12E-01 at (   1,  11,   6)
       Max VN number:   0.87E-02 at (   9,   5,  13)
       Mesh    7
       Max CFL number:  0.11E-01 at (  11,   8,   3)
       Max divergence:  0.44E-02 at (  16,   6,   6)
       Min divergence: -0.44E-02 at (   7,  10,   1)
       Max div. error:  0.44E-02 at (   7,  10,   1)
       Max VN number:   0.84E-02 at (   8,   5,  14)
       Mesh    8
       Max CFL number:  0.11E-01 at (   2,  12,   5)
       Max divergence:  0.64E-02 at (   6,   1,   6)
       Min divergence: -0.27E-02 at (   1,  10,  10)
       Max div. error:  0.64E-02 at (   6,   1,   6)
       Max VN number:   0.81E-02 at (   2,  15,   7)
 
       Time Step       6   October 28, 2020  13:31:26
       Step Size:    0.125E+00 s, Total Time:       0.75 s
       Pressure Iterations:      1
       Maximum Velocity Error:  0.69E-17 on Mesh   2 at (   6  17   7)
       Maximum Pressure Error:  0.28E+03 on Mesh   1 at (   8  11   7)
       ScaRC: iterations    34, residual  0.35E-08, convergence rate   0.49E+00
       ---------------------------------------------------------------
       Mesh    1
       Max CFL number:  0.86E+00 at (   6,  10,  10)
       Max divergence:  0.18E+01 at (   6,   9,  10)
       Min divergence: -0.16E+01 at (  16,   7,   7)
       Max div. error:  0.21E+01 at (   6,  10,  11)
       Max VN number:   0.32E+00 at (   6,  10,  11)
       Mesh    2
       Max CFL number:  0.26E+00 at (   1,   7,   9)
       Max divergence:  0.49E+00 at (   1,   6,   7)
       Min divergence: -0.16E+01 at (   1,   7,   7)
       Max div. error:  0.17E+01 at (   1,   7,   7)
       Max VN number:   0.59E-01 at (   1,   7,  10)
       Mesh    3
       Max CFL number:  0.12E-01 at (  10,   8,  13)
       Max divergence:  0.20E-01 at (  16,   5,   7)
       Min divergence: -0.51E-01 at (  16,  10,   7)
       Max div. error:  0.52E-01 at (  16,  10,   7)
       Max VN number:   0.86E-02 at (   4,   6,  11)
       Mesh    4
       Max CFL number:  0.28E-01 at (   6,   1,   9)
       Max divergence:  0.11E+00 at (   5,   1,   7)
       Min divergence: -0.31E+00 at (  10,   1,   7)
       Max div. error:  0.31E+00 at (  10,   1,   7)
       Max VN number:   0.76E-02 at (   6,  15,   7)
       Mesh    5
       Max CFL number:  0.13E-01 at (   7,   8,   1)
       Max divergence:  0.18E-01 at (  16,  11,   6)
       Min divergence: -0.46E-02 at (  16,   7,  10)
       Max div. error:  0.18E-01 at (  16,  11,   6)
       Max VN number:   0.81E-02 at (   4,  10,  10)
       Mesh    6
       Max CFL number:  0.11E-01 at (   8,   6,  12)
       Max divergence:  0.18E-01 at (   1,  11,   6)
       Min divergence: -0.46E-02 at (   1,   7,  10)
       Max div. error:  0.18E-01 at (   1,  11,   6)
       Max VN number:   0.87E-02 at (   9,   5,  13)
       Mesh    7
       Max CFL number:  0.11E-01 at (  11,   8,   3)
       Max divergence:  0.64E-02 at (  16,   6,   6)
       Min divergence: -0.80E-02 at (   7,  10,   1)
       Max div. error:  0.80E-02 at (   7,  10,   1)
       Max VN number:   0.84E-02 at (   8,   5,  14)
       Mesh    8
       Max CFL number:  0.11E-01 at (   2,  12,   5)
       Max divergence:  0.91E-02 at (   6,   1,   6)
       Min divergence: -0.40E-02 at (   1,  10,  10)
       Max div. error:  0.92E-02 at (   6,   1,   6)
       Max VN number:   0.81E-02 at (   2,  15,   7)
 
       Time Step       7   October 28, 2020  13:31:26
       Step Size:    0.709E-01 s, Total Time:       0.82 s
       Pressure Iterations:      1
       Maximum Velocity Error:  0.14E-16 on Mesh   2 at (   6  17  11)
       Maximum Pressure Error:  0.32E+03 on Mesh   1 at (   8  11   7)
       ScaRC: iterations    34, residual  0.65E-08, convergence rate   0.49E+00
       ---------------------------------------------------------------
       Mesh    1
       Max CFL number:  0.75E+00 at (   6,  10,  11)
       Max divergence:  0.16E+01 at (   6,   9,  10)
       Min divergence: -0.14E+01 at (  16,   7,   7)
       Max div. error:  0.20E+01 at (   6,   9,  11)
       Max VN number:   0.25E+00 at (   6,  10,  11)
       Mesh    2
       Max CFL number:  0.21E+00 at (   1,   7,   9)
       Max divergence:  0.45E+00 at (   1,  12,   7)
       Min divergence: -0.13E+01 at (   1,   7,   7)
       Max div. error:  0.15E+01 at (   1,   7,   7)
       Max VN number:   0.77E-01 at (   1,  11,   7)
       Mesh    3
       Max CFL number:  0.71E-02 at (   6,   1,   9)
       Max divergence:  0.27E-01 at (  16,   5,   7)
       Min divergence: -0.71E-01 at (  16,  10,   7)
       Max div. error:  0.71E-01 at (  16,  10,   7)
       Max VN number:   0.49E-02 at (   4,   6,  11)
       Mesh    4
       Max CFL number:  0.26E-01 at (   6,   1,   9)
       Max divergence:  0.13E+00 at (   5,   1,   7)
       Min divergence: -0.37E+00 at (  10,   1,   7)
       Max div. error:  0.38E+00 at (  10,   1,   7)
       Max VN number:   0.49E-02 at (   9,   2,   8)
       Mesh    5
       Max CFL number:  0.11E-01 at (   6,   9,   1)
       Max divergence:  0.20E-01 at (  16,  11,   6)
       Min divergence: -0.62E-02 at (  16,   7,  10)
       Max div. error:  0.20E-01 at (  16,  11,   6)
       Max VN number:   0.46E-02 at (   4,  10,  10)
       Mesh    6
       Max CFL number:  0.63E-02 at (   1,   7,   1)
       Max divergence:  0.20E-01 at (   1,  11,   6)
       Min divergence: -0.62E-02 at (   1,   7,  10)
       Max div. error:  0.20E-01 at (   1,  11,   6)
       Max VN number:   0.49E-02 at (   9,   5,  13)
       Mesh    7
       Max CFL number:  0.64E-02 at (  11,   8,   4)
       Max divergence:  0.69E-02 at (  16,   6,   6)
       Min divergence: -0.12E-01 at (   7,  10,   1)
       Max div. error:  0.12E-01 at (   7,  10,   1)
       Max VN number:   0.48E-02 at (   8,   5,  14)
       Mesh    8
       Max CFL number:  0.65E-02 at (   2,  12,   5)
       Max divergence:  0.10E-01 at (   6,   1,   6)
       Min divergence: -0.55E-02 at (   1,  10,  10)
       Max div. error:  0.10E-01 at (   6,   1,   6)
       Max VN number:   0.46E-02 at (   2,  15,   7)
 
       Time Step       8   October 28, 2020  13:31:27
       Step Size:    0.616E-01 s, Total Time:       0.88 s
       Pressure Iterations:      1
       Maximum Velocity Error:  0.56E-16 on Mesh   1 at (  17   7  11)
       Maximum Pressure Error:  0.30E+03 on Mesh   1 at (   8  11   7)
       ScaRC: iterations    34, residual  0.88E-08, convergence rate   0.49E+00
       ---------------------------------------------------------------
       Mesh    1
       Max CFL number:  0.85E+00 at (   6,  10,  11)
       Max divergence:  0.14E+01 at (   6,   9,  11)
       Min divergence: -0.12E+01 at (   8,   9,   8)
       Max div. error:  0.22E+01 at (   6,   9,  11)
       Max VN number:   0.21E+00 at (   6,  10,  11)
       Mesh    2
       Max CFL number:  0.22E+00 at (   1,   7,   9)
       Max divergence:  0.41E+00 at (   1,  12,   7)
       Min divergence: -0.12E+01 at (   1,   7,   7)
       Max div. error:  0.14E+01 at (   1,   7,   7)
       Max VN number:   0.10E+00 at (   1,  11,   7)
       Mesh    3
       Max CFL number:  0.69E-02 at (   4,   1,   9)
       Max divergence:  0.38E-01 at (  16,   5,   7)
       Min divergence: -0.95E-01 at (  16,  10,   7)
       Max div. error:  0.95E-01 at (  16,  10,   7)
       Max VN number:   0.42E-02 at (   4,   6,  11)
       Mesh    4
       Max CFL number:  0.31E-01 at (   6,   1,   9)
       Max divergence:  0.16E+00 at (   5,   1,   7)
       Min divergence: -0.43E+00 at (  10,   1,   7)
       Max div. error:  0.44E+00 at (  10,   1,   7)
       Max VN number:   0.60E-02 at (  10,   1,  10)
       Mesh    5
       Max CFL number:  0.14E-01 at (   6,   9,   1)
       Max divergence:  0.19E-01 at (  16,  11,   6)
       Min divergence: -0.60E-02 at (  16,   7,  10)
       Max div. error:  0.19E-01 at (  16,  11,   6)
       Max VN number:   0.40E-02 at (   4,  10,  10)
       Mesh    6
       Max CFL number:  0.58E-02 at (   1,   7,   1)
       Max divergence:  0.19E-01 at (   1,  11,   6)
       Min divergence: -0.60E-02 at (   1,   7,  10)
       Max div. error:  0.19E-01 at (   1,  11,   6)
       Max VN number:   0.43E-02 at (   9,   5,  13)
       Mesh    7
       Max CFL number:  0.56E-02 at (  11,   8,   4)
       Max divergence:  0.64E-02 at (   9,  11,   1)
       Min divergence: -0.16E-01 at (   7,  10,   1)
       Max div. error:  0.17E-01 at (   7,  10,   1)
       Max VN number:   0.41E-02 at (   8,   5,  14)
       Mesh    8
       Max CFL number:  0.57E-02 at (   2,  12,   5)
       Max divergence:  0.98E-02 at (   6,   1,   6)
       Min divergence: -0.63E-02 at (   1,  10,  10)
       Max div. error:  0.99E-02 at (   6,   1,   6)
       Max VN number:   0.40E-02 at (   2,  15,   7)
 
       Time Step       9   October 28, 2020  13:31:27
       Step Size:    0.616E-01 s, Total Time:       0.94 s
       Pressure Iterations:      1
       Maximum Velocity Error:  0.56E-16 on Mesh   1 at (  17  10   8)
       Maximum Pressure Error:  0.43E+03 on Mesh   1 at (   8   7   7)
       ScaRC: iterations    34, residual  0.94E-08, convergence rate   0.49E+00
       ---------------------------------------------------------------
       Mesh    1
       Max CFL number:  0.99E+00 at (   6,  10,  12)
       Max divergence:  0.22E+01 at (   6,   9,  11)
       Min divergence: -0.15E+01 at (   8,   9,   8)
       Max div. error:  0.30E+01 at (   6,   9,  11)
       Max VN number:   0.28E+00 at (   6,   7,  12)
       Mesh    2
       Max CFL number:  0.27E+00 at (   1,   7,   9)
       Max divergence:  0.40E+00 at (   1,  12,   7)
       Min divergence: -0.13E+01 at (   1,   7,   7)
       Max div. error:  0.16E+01 at (   1,   7,   7)
       Max VN number:   0.14E+00 at (   1,   7,   7)
       Mesh    3
       Max CFL number:  0.80E-02 at (  16,  10,   7)
       Max divergence:  0.50E-01 at (  16,   5,   7)
       Min divergence: -0.12E+00 at (  16,  10,   7)
       Max div. error:  0.12E+00 at (  16,  10,   7)
       Max VN number:   0.42E-02 at (   4,   6,  11)
       Mesh    4
       Max CFL number:  0.43E-01 at (  10,   1,   9)
       Max divergence:  0.18E+00 at (   5,   1,   7)
       Min divergence: -0.49E+00 at (  10,   1,   7)
       Max div. error:  0.50E+00 at (  10,   1,   7)
       Max VN number:   0.10E-01 at (  10,   1,   7)
       Mesh    5
       Max CFL number:  0.20E-01 at (   6,   9,   1)
       Max divergence:  0.23E-01 at (   7,   9,   1)
       Min divergence: -0.67E-02 at (  16,   7,  10)
       Max div. error:  0.23E-01 at (   7,   9,   1)
       Max VN number:   0.40E-02 at (   4,  10,  10)
       Mesh    6
       Max CFL number:  0.62E-02 at (   1,   7,   1)
       Max divergence:  0.21E-01 at (   1,  11,   6)
       Min divergence: -0.67E-02 at (   1,   7,  10)
       Max div. error:  0.21E-01 at (   1,  11,   6)
       Max VN number:   0.42E-02 at (   9,   5,  13)
       Mesh    7
       Max CFL number:  0.57E-02 at (  11,   8,   4)
       Max divergence:  0.81E-02 at (  10,  11,   1)
       Min divergence: -0.22E-01 at (   7,  10,   1)
       Max div. error:  0.22E-01 at (   7,  10,   1)
       Max VN number:   0.41E-02 at (   8,   5,  14)
       Mesh    8
       Max CFL number:  0.58E-02 at (   2,  12,   5)
       Max divergence:  0.11E-01 at (   6,   1,   6)
       Min divergence: -0.77E-02 at (   1,  10,  10)
       Max div. error:  0.11E-01 at (   6,   1,   6)
       Max VN number:   0.40E-02 at (   2,  15,   7)
 
       Time Step      10   October 28, 2020  13:31:28
       Step Size:    0.425E-01 s, Total Time:       0.99 s
       Pressure Iterations:      1
       Maximum Velocity Error:  0.28E-16 on Mesh   1 at (  17   8  10)
       Maximum Pressure Error:  0.35E+03 on Mesh   1 at (   8   7   7)
       ScaRC: iterations    35, residual  0.47E-08, convergence rate   0.49E+00
       ---------------------------------------------------------------
       Mesh    1
       Max CFL number:  0.86E+00 at (   6,  10,  12)
       Max divergence:  0.21E+01 at (   6,   9,  11)
       Min divergence: -0.14E+01 at (   8,   9,   8)
       Max div. error:  0.27E+01 at (   6,   9,  11)
       Max VN number:   0.24E+00 at (   6,  10,  12)
       Mesh    2
       Max CFL number:  0.20E+00 at (   1,   7,   9)
       Max divergence:  0.39E+00 at (   1,   8,   6)
       Min divergence: -0.11E+01 at (   1,   7,   7)
       Max div. error:  0.14E+01 at (   1,   7,   7)
       Max VN number:   0.12E+00 at (   1,   7,   7)
       Mesh    3
       Max CFL number:  0.67E-02 at (  16,  10,   7)
       Max divergence:  0.50E-01 at (  16,   5,   7)
       Min divergence: -0.14E+00 at (  16,  10,   7)
       Max div. error:  0.14E+00 at (  16,  10,   7)
       Max VN number:   0.29E-02 at (   4,   6,  11)
       Mesh    4
       Max CFL number:  0.36E-01 at (  10,   1,   9)
       Max divergence:  0.17E+00 at (   5,   1,   7)
       Min divergence: -0.51E+00 at (  10,   1,   7)
       Max div. error:  0.52E+00 at (  10,   1,   7)
       Max VN number:   0.12E-01 at (  10,   1,   7)
       Mesh    5
       Max CFL number:  0.19E-01 at (   6,   9,   1)
       Max divergence:  0.21E-01 at (  16,  11,   6)
       Min divergence: -0.69E-02 at (  16,   7,  10)
       Max div. error:  0.22E-01 at (  16,  11,   6)
       Max VN number:   0.28E-02 at (   4,  10,  10)
       Mesh    6
       Max CFL number:  0.50E-02 at (   1,   7,   1)
       Max divergence:  0.22E-01 at (   1,  11,   6)
       Min divergence: -0.71E-02 at (  10,  16,  10)
       Max div. error:  0.22E-01 at (   1,  11,   6)
       Max VN number:   0.29E-02 at (   9,   5,  13)
       Mesh    7
       Max CFL number:  0.40E-02 at (  11,   8,   4)
       Max divergence:  0.98E-02 at (  10,  11,   1)
       Min divergence: -0.29E-01 at (   7,   6,   1)
       Max div. error:  0.29E-01 at (   7,   6,   1)
       Max VN number:   0.29E-02 at (   8,   5,  14)
       Mesh    8
       Max CFL number:  0.40E-02 at (   2,  12,   5)
       Max divergence:  0.12E-01 at (   6,   1,   6)
       Min divergence: -0.95E-02 at (   1,  10,  10)
       Max div. error:  0.12E-01 at (   6,   1,   6)
       Max VN number:   0.27E-02 at (   2,  15,   7)
 
       Time Step      20   October 28, 2020  13:31:37
       Step Size:    0.326E-01 s, Total Time:       1.37 s
       Pressure Iterations:      2
       Maximum Velocity Error:  0.11E-15 on Mesh   1 at (   5   9  17)
       Maximum Pressure Error:  0.43E+03 on Mesh   1 at (   8   7  11)
       ScaRC: iterations    35, residual  0.70E-08, convergence rate   0.49E+00
       ---------------------------------------------------------------
       Mesh    1
       Max CFL number:  0.92E+00 at (   6,   9,  16)
       Max divergence:  0.26E+01 at (   6,   9,  10)
       Min divergence: -0.19E+01 at (   8,   9,  10)
       Max div. error:  0.31E+01 at (   6,  10,  10)
       Max VN number:   0.33E+00 at (   6,   9,  15)
       Mesh    2
       Max CFL number:  0.26E+00 at (   1,   7,   7)
       Max divergence:  0.36E+00 at (   1,  12,   7)
       Min divergence: -0.11E+01 at (   1,   7,   7)
       Max div. error:  0.14E+01 at (   1,   7,   7)
       Max VN number:   0.20E+00 at (   1,   7,   7)
       Mesh    3
       Max CFL number:  0.28E-01 at (  16,  10,   9)
       Max divergence:  0.16E+00 at (  16,   5,   7)
       Min divergence: -0.40E+00 at (  16,  10,   7)
       Max div. error:  0.41E+00 at (  16,  10,   7)
       Max VN number:   0.12E-01 at (  16,  10,   7)
       Mesh    4
       Max CFL number:  0.11E+00 at (  10,   1,   9)
       Max divergence:  0.28E+00 at (   5,   1,   7)
       Min divergence: -0.72E+00 at (  10,   1,   7)
       Max div. error:  0.85E+00 at (  10,   1,   7)
       Max VN number:   0.68E-01 at (  10,   1,   7)
       Mesh    5
       Max CFL number:  0.53E+00 at (   6,   9,   1)
       Max divergence:  0.17E+00 at (   5,   9,   1)
       Min divergence: -0.24E+00 at (   6,   9,   1)
       Max div. error:  0.17E-01 at (  16,  12,   6)
       Max VN number:   0.96E-01 at (   6,   9,   1)
       Mesh    6
       Max CFL number:  0.71E-02 at (   1,   9,   1)
       Max divergence:  0.26E-01 at (   6,  16,   5)
       Min divergence: -0.15E-01 at (  10,  16,  10)
       Max div. error:  0.26E-01 at (   6,  16,   5)
       Max VN number:   0.22E-02 at (   9,   5,  13)
       Mesh    7
       Max CFL number:  0.84E-02 at (   8,   9,   1)
       Max divergence:  0.59E-01 at (  12,   6,   1)
       Min divergence: -0.14E+00 at (   7,   6,   1)
       Max div. error:  0.14E+00 at (   7,   6,   1)
       Max VN number:   0.22E-02 at (   8,   9,   1)
       Mesh    8
       Max CFL number:  0.49E-02 at (   1,  11,   7)
       Max divergence:  0.31E-01 at (   1,   6,   5)
       Min divergence: -0.46E-01 at (   1,  10,   6)
       Max div. error:  0.46E-01 at (   1,  10,   6)
       Max VN number:   0.21E-02 at (   2,  15,   7)
 
       Time Step      30   October 28, 2020  13:31:47
       Step Size:    0.326E-01 s, Total Time:       1.70 s
       Pressure Iterations:      2
       Maximum Velocity Error:  0.44E-15 on Mesh   1 at (   6  10  17)
       Maximum Pressure Error:  0.49E+03 on Mesh   1 at (   8   7  11)
       ScaRC: iterations    35, residual  0.76E-08, convergence rate   0.49E+00
       ---------------------------------------------------------------
       Mesh    1
       Max CFL number:  0.66E+00 at (   7,  10,  16)
       Max divergence:  0.25E+01 at (   6,  10,  10)
       Min divergence: -0.20E+01 at (   8,   9,  10)
       Max div. error:  0.32E+01 at (   6,   8,  10)
       Max VN number:   0.24E+00 at (   7,   8,  12)
       Mesh    2
       Max CFL number:  0.38E+00 at (   1,  12,  13)
       Max divergence:  0.29E+00 at (   1,  10,  12)
       Min divergence: -0.93E+00 at (   1,   7,   7)
       Max div. error:  0.12E+01 at (   1,   7,   7)
       Max VN number:   0.19E+00 at (   1,   7,   7)
       Mesh    3
       Max CFL number:  0.81E-01 at (  16,  10,   9)
       Max divergence:  0.19E+00 at (  16,   5,   7)
       Min divergence: -0.51E+00 at (  16,  10,   7)
       Max div. error:  0.59E+00 at (  16,  10,   7)
       Max VN number:   0.51E-01 at (  16,  10,   7)
       Mesh    4
       Max CFL number:  0.20E+00 at (  10,   1,   7)
       Max divergence:  0.28E+00 at (   5,   1,   7)
       Min divergence: -0.73E+00 at (  10,   1,   7)
       Max div. error:  0.98E+00 at (  10,   1,   7)
       Max VN number:   0.15E+00 at (  10,   1,   7)
       Mesh    5
       Max CFL number:  0.89E+00 at (   7,   9,   2)
       Max divergence:  0.22E+00 at (   7,   9,   5)
       Min divergence: -0.72E+00 at (   6,   9,   5)
       Max div. error:  0.83E-01 at (   7,   7,   6)
       Max VN number:   0.36E+00 at (   6,   9,   4)
       Mesh    6
       Max CFL number:  0.15E-01 at (   1,   6,   1)
       Max divergence:  0.34E-01 at (   1,   6,   7)
       Min divergence: -0.81E-01 at (   1,   7,  10)
       Max div. error:  0.81E-01 at (   1,   7,  10)
       Max VN number:   0.28E-02 at (   1,   6,   5)
       Mesh    7
       Max CFL number:  0.27E-01 at (   8,   9,   1)
       Max divergence:  0.95E-01 at (  12,   8,   1)
       Min divergence: -0.25E+00 at (   7,   6,   1)
       Max div. error:  0.25E+00 at (   7,   6,   1)
       Max VN number:   0.84E-02 at (   8,   9,   1)
       Mesh    8
       Max CFL number:  0.10E-01 at (   1,  11,   7)
       Max divergence:  0.48E-01 at (   1,  10,   5)
       Min divergence: -0.12E+00 at (   1,  10,   6)
       Max div. error:  0.12E+00 at (   1,  10,   6)
       Max VN number:   0.26E-02 at (  11,   1,   5)
 
       Time Step      40   October 28, 2020  13:31:55
       Step Size:    0.326E-01 s, Total Time:       2.02 s
       Pressure Iterations:      2
       Maximum Velocity Error:  0.44E-15 on Mesh   1 at (   6   8  17)
       Maximum Pressure Error:  0.49E+03 on Mesh   1 at (   8   7  11)
       ScaRC: iterations    35, residual  0.87E-08, convergence rate   0.49E+00
       ---------------------------------------------------------------
       Mesh    1
       Max CFL number:  0.60E+00 at (   6,  10,  12)
       Max divergence:  0.26E+01 at (   6,   8,  10)
       Min divergence: -0.21E+01 at (   8,   9,  10)
       Max div. error:  0.34E+01 at (   6,   8,  10)
       Max VN number:   0.26E+00 at (   6,   8,  12)
       Mesh    2
       Max CFL number:  0.42E+00 at (   1,  12,  15)
       Max divergence:  0.27E+00 at (   5,  16,   7)
       Min divergence: -0.80E+00 at (   1,   7,   7)
       Max div. error:  0.10E+01 at (   1,   7,   7)
       Max VN number:   0.19E+00 at (   1,  12,  14)
       Mesh    3
       Max CFL number:  0.16E+00 at (  16,  10,   7)
       Max divergence:  0.23E+00 at (  16,   5,   7)
       Min divergence: -0.60E+00 at (  16,  10,   7)
       Max div. error:  0.76E+00 at (  16,  10,   7)
       Max VN number:   0.11E+00 at (  16,  10,   7)
       Mesh    4
       Max CFL number:  0.28E+00 at (   5,   1,  12)
       Max divergence:  0.27E+00 at (   5,   1,   7)
       Min divergence: -0.79E+00 at (  10,   1,   7)
       Max div. error:  0.11E+01 at (  10,   1,   7)
       Max VN number:   0.19E+00 at (  10,   1,   7)
       Mesh    5
       Max CFL number:  0.87E+00 at (   8,   9,   4)
       Max divergence:  0.24E+00 at (   9,   9,   4)
       Min divergence: -0.64E+00 at (   8,   9,   4)
       Max div. error:  0.24E+00 at (  16,   7,   6)
       Max VN number:   0.50E+00 at (   7,   9,   5)
       Mesh    6
       Max CFL number:  0.10E+00 at (   1,   6,   1)
       Max divergence:  0.10E+00 at (   1,  12,   6)
       Min divergence: -0.23E+00 at (   1,   7,   6)
       Max div. error:  0.23E+00 at (   1,   7,   6)
       Max VN number:   0.14E-01 at (   1,   6,   1)
       Mesh    7
       Max CFL number:  0.58E-01 at (   8,   9,   1)
       Max divergence:  0.12E+00 at (  12,   7,   1)
       Min divergence: -0.29E+00 at (   7,   6,   1)
       Max div. error:  0.30E+00 at (   7,   6,   1)
       Max VN number:   0.22E-01 at (   8,   9,   1)
       Mesh    8
       Max CFL number:  0.27E-01 at (   1,  10,   8)
       Max divergence:  0.85E-01 at (   1,   5,   6)
       Min divergence: -0.20E+00 at (   1,  10,   6)
       Max div. error:  0.21E+00 at (   1,  10,   6)
       Max VN number:   0.83E-02 at (   1,  10,   6)
 
       Time Step      50   October 28, 2020  13:32:02
       Step Size:    0.434E-01 s, Total Time:       2.41 s
       Pressure Iterations:      1
       Maximum Velocity Error:  0.44E-15 on Mesh   1 at (   8   9  17)
       Maximum Pressure Error:  0.38E+03 on Mesh   1 at (   6   8  10)
       ScaRC: iterations    36, residual  0.42E-08, convergence rate   0.49E+00
       ---------------------------------------------------------------
       Mesh    1
       Max CFL number:  0.84E+00 at (   6,   8,  12)
       Max divergence:  0.25E+01 at (   6,   8,  10)
       Min divergence: -0.21E+01 at (   8,   9,   9)
       Max div. error:  0.32E+01 at (   6,   8,  11)
       Max VN number:   0.38E+00 at (   6,   8,  12)
       Mesh    2
       Max CFL number:  0.54E+00 at (   1,  12,  16)
       Max divergence:  0.36E+00 at (   1,   8,   6)
       Min divergence: -0.97E+00 at (   1,   7,   7)
       Max div. error:  0.12E+01 at (   1,   7,   7)
       Max VN number:   0.23E+00 at (   5,  16,  13)
       Mesh    3
       Max CFL number:  0.34E+00 at (  16,   5,  12)
       Max divergence:  0.29E+00 at (  16,  11,   7)
       Min divergence: -0.91E+00 at (  16,  10,   7)
       Max div. error:  0.12E+01 at (  16,  10,   7)
       Max VN number:   0.23E+00 at (  16,  10,   7)
       Mesh    4
       Max CFL number:  0.47E+00 at (   5,   1,  14)
       Max divergence:  0.29E+00 at (   1,  11,   7)
       Min divergence: -0.94E+00 at (  10,   1,   7)
       Max div. error:  0.12E+01 at (  10,   1,   7)
       Max VN number:   0.24E+00 at (  10,   1,   7)
       Mesh    5
       Max CFL number:  0.91E+00 at (   5,   9,  11)
       Max divergence:  0.20E+00 at (  11,   9,   5)
       Min divergence: -0.70E+00 at (  10,   9,   5)
       Max div. error:  0.81E+00 at (   8,   7,   6)
       Max VN number:   0.67E+00 at (  10,   9,   5)
       Mesh    6
       Max CFL number:  0.55E+00 at (   1,  12,   1)
       Max divergence:  0.81E-01 at (  11,  16,   6)
       Min divergence: -0.22E+00 at (  10,  16,   6)
       Max div. error:  0.24E+00 at (  10,  16,   6)
       Max VN number:   0.24E+00 at (   1,  12,   1)
       Mesh    7
       Max CFL number:  0.14E+00 at (   9,   8,   1)
       Max divergence:  0.95E-01 at (  16,  11,   6)
       Min divergence: -0.30E+00 at (   7,   6,   1)
       Max div. error:  0.31E+00 at (   7,   6,   1)
       Max VN number:   0.58E-01 at (   8,   7,   1)
       Mesh    8
       Max CFL number:  0.88E-01 at (   1,  10,   8)
       Max divergence:  0.94E-01 at (   1,  11,   6)
       Min divergence: -0.26E+00 at (   1,  10,   6)
       Max div. error:  0.29E+00 at (   1,  10,   6)
       Max VN number:   0.50E-01 at (   1,  10,   6)
 
       Time Step      60   October 28, 2020  13:32:08
       Step Size:    0.434E-01 s, Total Time:       2.84 s
       Pressure Iterations:      1
       Maximum Velocity Error:  0.44E-15 on Mesh   1 at (   7   8  17)
       Maximum Pressure Error:  0.40E+03 on Mesh   1 at (   6   8  10)
       ScaRC: iterations    36, residual  0.38E-08, convergence rate   0.49E+00
       ---------------------------------------------------------------
       Mesh    1
       Max CFL number:  0.82E+00 at (   6,   8,  12)
       Max divergence:  0.27E+01 at (   6,   8,  10)
       Min divergence: -0.22E+01 at (   8,   8,   8)
       Max div. error:  0.33E+01 at (   6,   8,  10)
       Max VN number:   0.37E+00 at (   6,   8,  12)
       Mesh    2
       Max CFL number:  0.49E+00 at (   5,  16,  16)
       Max divergence:  0.32E+00 at (   1,   9,   6)
       Min divergence: -0.11E+01 at (   1,  11,   7)
       Max div. error:  0.12E+01 at (   1,  11,   7)
       Max VN number:   0.23E+00 at (  10,   9,   7)
       Mesh    3
       Max CFL number:  0.43E+00 at (  16,   5,  14)
       Max divergence:  0.30E+00 at (  16,  10,   6)
       Min divergence: -0.99E+00 at (  16,  10,   7)
       Max div. error:  0.13E+01 at (  16,  10,   7)
       Max VN number:   0.24E+00 at (  16,  10,   7)
       Mesh    4
       Max CFL number:  0.48E+00 at (   5,   1,  16)
       Max divergence:  0.30E+00 at (   1,   5,   7)
       Min divergence: -0.86E+00 at (   1,  10,   7)
       Max div. error:  0.10E+01 at (  10,   1,   7)
       Max VN number:   0.20E+00 at (   5,   1,  16)
       Mesh    5
       Max CFL number:  0.84E+00 at (   8,   9,   3)
       Max divergence:  0.44E+00 at (  16,  11,   6)
       Min divergence: -0.11E+01 at (  12,   7,   6)
       Max div. error:  0.14E+01 at (  12,   7,   6)
       Max VN number:   0.60E+00 at (  10,   9,   5)
       Mesh    6
       Max CFL number:  0.53E+00 at (   1,  12,   4)
       Max divergence:  0.42E+00 at (   1,  11,   6)
       Min divergence: -0.20E+00 at (  10,  16,   6)
       Max div. error:  0.43E+00 at (   1,  11,   6)
       Max VN number:   0.22E+00 at (   1,  12,   4)
       Mesh    7
       Max CFL number:  0.23E+00 at (   9,   8,   1)
       Max divergence:  0.11E+00 at (  16,  11,   6)
       Min divergence: -0.31E+00 at (   7,   6,   1)
       Max div. error:  0.33E+00 at (  16,  10,   6)
       Max VN number:   0.10E+00 at (  16,  10,   6)
       Mesh    8
       Max CFL number:  0.42E+00 at (   5,   1,   1)
       Max divergence:  0.10E+00 at (   1,  11,   6)
       Min divergence: -0.28E+00 at (   1,  10,   6)
       Max div. error:  0.36E+00 at (   1,  10,   6)
       Max VN number:   0.12E+00 at (   5,   1,   1)
 
       Time Step      70   October 28, 2020  13:32:14
       Step Size:    0.478E-01 s, Total Time:       3.30 s
       Pressure Iterations:      1
       Maximum Velocity Error:  0.44E-15 on Mesh   1 at (   7   9  17)
       Maximum Pressure Error:  0.39E+03 on Mesh   1 at (   8   9   8)
       ScaRC: iterations    36, residual  0.40E-08, convergence rate   0.49E+00
       ---------------------------------------------------------------
       Mesh    1
       Max CFL number:  0.87E+00 at (   6,   8,  12)
       Max divergence:  0.27E+01 at (   6,   8,   9)
       Min divergence: -0.23E+01 at (   8,  10,   8)
       Max div. error:  0.35E+01 at (   6,   9,   9)
       Max VN number:   0.42E+00 at (   6,   8,  12)
       Mesh    2
       Max CFL number:  0.46E+00 at (   1,  12,  13)
       Max divergence:  0.30E+00 at (   1,  10,   6)
       Min divergence: -0.11E+01 at (   1,  11,   7)
       Max div. error:  0.12E+01 at (   1,  11,   7)
       Max VN number:   0.21E+00 at (  10,  12,   7)
       Mesh    3
       Max CFL number:  0.50E+00 at (  16,   5,  16)
       Max divergence:  0.32E+00 at (  16,   9,   6)
       Min divergence: -0.96E+00 at (  16,  10,   7)
       Max div. error:  0.13E+01 at (  16,  10,   7)
       Max VN number:   0.23E+00 at (  16,  10,   7)
       Mesh    4
       Max CFL number:  0.51E+00 at (   1,   5,  16)
       Max divergence:  0.32E+00 at (   1,   9,   6)
       Min divergence: -0.89E+00 at (   1,  10,   7)
       Max div. error:  0.11E+01 at (   1,  10,   7)
       Max VN number:   0.22E+00 at (   1,   5,  16)
       Mesh    5
       Max CFL number:  0.88E+00 at (   6,   9,   6)
       Max divergence:  0.25E+00 at (  16,  11,   7)
       Min divergence: -0.98E+00 at (  15,  11,   6)
       Max div. error:  0.11E+01 at (  15,   7,   6)
       Max VN number:   0.57E+00 at (   7,   9,   5)
       Mesh    6
       Max CFL number:  0.55E+00 at (   5,  16,   3)
       Max divergence:  0.89E+00 at (   1,  11,   6)
       Min divergence: -0.30E+00 at (  10,  16,   6)
       Max div. error:  0.11E+01 at (   1,  11,   6)
       Max VN number:   0.24E+00 at (   5,  16,   3)
       Mesh    7
       Max CFL number:  0.43E+00 at (  16,   5,   1)
       Max divergence:  0.12E+00 at (  16,  11,   6)
       Min divergence: -0.31E+00 at (  16,  10,   6)
       Max div. error:  0.39E+00 at (  16,  10,   6)
       Max VN number:   0.15E+00 at (  16,  10,   6)
       Mesh    8
       Max CFL number:  0.54E+00 at (   5,   1,   3)
       Max divergence:  0.12E+00 at (   1,  11,   6)
       Min divergence: -0.34E+00 at (   1,  10,   6)
       Max div. error:  0.44E+00 at (   1,  10,   6)
       Max VN number:   0.22E+00 at (   5,   1,   2)
 
       Time Step      80   October 28, 2020  13:32:21
       Step Size:    0.478E-01 s, Total Time:       3.78 s
       Pressure Iterations:      1
       Maximum Velocity Error:  0.44E-15 on Mesh   1 at (   6   8  17)
       Maximum Pressure Error:  0.43E+03 on Mesh   1 at (   6   9   9)
       ScaRC: iterations    36, residual  0.47E-08, convergence rate   0.49E+00
       ---------------------------------------------------------------
       Mesh    1
       Max CFL number:  0.94E+00 at (   6,   8,  12)
       Max divergence:  0.27E+01 at (   6,   8,  10)
       Min divergence: -0.22E+01 at (   8,  10,   8)
       Max div. error:  0.38E+01 at (   6,   9,   9)
       Max VN number:   0.43E+00 at (   6,   8,  12)
       Mesh    2
       Max CFL number:  0.46E+00 at (   5,  16,  16)
       Max divergence:  0.32E+00 at (   1,  11,  12)
       Min divergence: -0.11E+01 at (   1,   7,   7)
       Max div. error:  0.12E+01 at (   1,   7,   7)
       Max VN number:   0.19E+00 at (  10,  14,   7)
       Mesh    3
       Max CFL number:  0.51E+00 at (   7,   6,  10)
       Max divergence:  0.34E+00 at (  16,   8,   6)
       Min divergence: -0.82E+00 at (  16,   6,   7)
       Max div. error:  0.11E+01 at (  16,  10,   7)
       Max VN number:   0.18E+00 at (  16,  10,   7)
       Mesh    4
       Max CFL number:  0.47E+00 at (   1,   5,  14)
       Max divergence:  0.34E+00 at (   1,   8,   6)
       Min divergence: -0.79E+00 at (   1,   6,   7)
       Max div. error:  0.10E+01 at (   1,   6,   7)
       Max VN number:   0.22E+00 at (   8,  10,   7)
       Mesh    5
       Max CFL number:  0.78E+00 at (   9,   9,   2)
       Max divergence:  0.87E+00 at (  16,  11,   6)
       Min divergence: -0.71E+00 at (   8,  11,   6)
       Max div. error:  0.10E+01 at (   8,  11,   6)
       Max VN number:   0.52E+00 at (   9,   9,   5)
       Mesh    6
       Max CFL number:  0.50E+00 at (   1,  12,   4)
       Max divergence:  0.28E+00 at (   6,  16,   6)
       Min divergence: -0.29E+00 at (   1,   9,   5)
       Max div. error:  0.52E+00 at (   1,   7,   6)
       Max VN number:   0.33E+00 at (   1,  11,   5)
       Mesh    7
       Max CFL number:  0.52E+00 at (  16,   5,   3)
       Max divergence:  0.12E+00 at (  16,   6,  10)
       Min divergence: -0.25E+00 at (  16,  10,   6)
       Max div. error:  0.32E+00 at (  16,  10,   6)
       Max VN number:   0.23E+00 at (  16,   5,   2)
       Mesh    8
       Max CFL number:  0.52E+00 at (   1,   5,   3)
       Max divergence:  0.25E+00 at (   6,   1,   6)
       Min divergence: -0.26E+00 at (   1,  10,   6)
       Max div. error:  0.35E+00 at (   1,  10,   6)
       Max VN number:   0.23E+00 at (   1,   5,   2)
 
       Time Step      90   October 28, 2020  13:32:27
       Step Size:    0.478E-01 s, Total Time:       4.25 s
       Pressure Iterations:      2
       Maximum Velocity Error:  0.44E-15 on Mesh   1 at (   9   9  17)
       Maximum Pressure Error:  0.36E+03 on Mesh   1 at (   8  11  11)
       ScaRC: iterations    36, residual  0.56E-08, convergence rate   0.49E+00
       ---------------------------------------------------------------
       Mesh    1
       Max CFL number:  0.88E+00 at (   6,   8,  12)
       Max divergence:  0.27E+01 at (   6,   8,  10)
       Min divergence: -0.22E+01 at (   8,  10,   8)
       Max div. error:  0.40E+01 at (   6,   9,  10)
       Max VN number:   0.41E+00 at (   6,   8,  12)
       Mesh    2
       Max CFL number:  0.47E+00 at (   1,  12,  15)
       Max divergence:  0.39E+00 at (   1,  10,  12)
       Min divergence: -0.12E+01 at (   1,   7,   7)
       Max div. error:  0.12E+01 at (   1,   7,   7)
       Max VN number:   0.18E+00 at (   1,  12,  15)
       Mesh    3
       Max CFL number:  0.56E+00 at (   7,   6,   7)
       Max divergence:  0.33E+00 at (   7,   7,   7)
       Min divergence: -0.11E+01 at (   7,   6,   7)
       Max div. error:  0.17E+01 at (   7,   6,   7)
       Max VN number:   0.43E+00 at (   7,   6,   7)
       Mesh    4
       Max CFL number:  0.48E+00 at (   1,   5,  16)
       Max divergence:  0.31E+00 at (   1,   8,   6)
       Min divergence: -0.77E+00 at (  10,   1,   7)
       Max div. error:  0.11E+01 at (  10,   1,   7)
       Max VN number:   0.17E+00 at (   4,  10,   7)
       Mesh    5
       Max CFL number:  0.73E+00 at (  10,   9,   2)
       Max divergence:  0.76E+00 at (  16,   7,   6)
       Min divergence: -0.84E+00 at (  10,  11,   6)
       Max div. error:  0.12E+01 at (  10,  11,   6)
       Max VN number:   0.47E+00 at (   9,  10,   5)
       Mesh    6
       Max CFL number:  0.53E+00 at (   1,  11,   2)
       Max divergence:  0.51E+00 at (   1,   9,   6)
       Min divergence: -0.54E+00 at (   1,   9,   5)
       Max div. error:  0.70E+00 at (   1,   9,   6)
       Max VN number:   0.33E+00 at (   2,   9,   5)
       Mesh    7
       Max CFL number:  0.48E+00 at (  16,   5,   1)
       Max divergence:  0.38E+00 at (  16,   6,   6)
       Min divergence: -0.31E+00 at (   7,   6,   1)
       Max div. error:  0.43E+00 at (  16,   6,   6)
       Max VN number:   0.21E+00 at (  16,   5,   5)
       Mesh    8
       Max CFL number:  0.48E+00 at (   1,   5,   1)
       Max divergence:  0.45E+00 at (   1,   6,   6)
       Min divergence: -0.27E+00 at (   5,   1,   8)
       Max div. error:  0.52E+00 at (   1,   6,   6)
       Max VN number:   0.27E+00 at (   6,   1,   5)
 
       Time Step     100   October 28, 2020  13:32:35
       Step Size:    0.478E-01 s, Total Time:       4.73 s
       Pressure Iterations:      1
       Maximum Velocity Error:  0.44E-15 on Mesh   1 at (   6   8  17)
       Maximum Pressure Error:  0.48E+03 on Mesh   1 at (   6   9  10)
       ScaRC: iterations    36, residual  0.53E-08, convergence rate   0.49E+00
       ---------------------------------------------------------------
       Mesh    1
       Max CFL number:  0.97E+00 at (   6,  10,  12)
       Max divergence:  0.28E+01 at (   6,   9,  10)
       Min divergence: -0.21E+01 at (   8,   9,  10)
       Max div. error:  0.43E+01 at (   6,   9,  10)
       Max VN number:   0.43E+00 at (   6,  10,  12)
       Mesh    2
       Max CFL number:  0.46E+00 at (   1,  12,  16)
       Max divergence:  0.45E+00 at (   1,  10,  12)
       Min divergence: -0.11E+01 at (   1,   7,   7)
       Max div. error:  0.13E+01 at (   1,   7,   7)
       Max VN number:   0.18E+00 at (  11,  16,  12)
       Mesh    3
       Max CFL number:  0.49E+00 at (  11,   6,   8)
       Max divergence:  0.32E+00 at (  16,   5,   7)
       Min divergence: -0.93E+00 at (  16,  10,   7)
       Max div. error:  0.12E+01 at (  16,  10,   7)
       Max VN number:   0.32E+00 at (  11,  10,   7)
       Mesh    4
       Max CFL number:  0.46E+00 at (   1,   5,  15)
       Max divergence:  0.37E+00 at (  11,   1,   7)
       Min divergence: -0.10E+01 at (  10,   1,   7)
       Max div. error:  0.13E+01 at (  10,   1,   7)
       Max VN number:   0.18E+00 at (  11,   1,  12)
       Mesh    5
       Max CFL number:  0.77E+00 at (  10,   9,   3)
       Max divergence:  0.88E+00 at (  16,  11,   6)
       Min divergence: -0.10E+01 at (  12,  11,   6)
       Max div. error:  0.14E+01 at (  11,  11,   6)
       Max VN number:   0.44E+00 at (  11,   9,   5)
       Mesh    6
       Max CFL number:  0.49E+00 at (   1,  12,   5)
       Max divergence:  0.77E+00 at (   1,  11,   6)
       Min divergence: -0.83E+00 at (   1,   7,  10)
       Max div. error:  0.92E+00 at (   1,  11,   6)
       Max VN number:   0.34E+00 at (   1,   7,   5)
       Mesh    7
       Max CFL number:  0.47E+00 at (  16,   5,   4)
       Max divergence:  0.59E+00 at (  16,   6,   6)
       Min divergence: -0.35E+00 at (   7,   6,   1)
       Max div. error:  0.77E+00 at (  16,   6,   6)
       Max VN number:   0.21E+00 at (  16,  10,   5)
       Mesh    8
       Max CFL number:  0.49E+00 at (   1,   5,   3)
       Max divergence:  0.62E+00 at (   1,   6,   6)
       Min divergence: -0.31E+00 at (   1,   5,   7)
       Max div. error:  0.79E+00 at (   1,   6,   6)
       Max VN number:   0.28E+00 at (  10,   1,   5)
 
       Time Step     200   October 28, 2020  13:34:22
       Step Size:    0.399E-01 s, Total Time:       9.06 s
       Pressure Iterations:      4
       Maximum Velocity Error:  0.44E-15 on Mesh   1 at (   8   9  17)
       Maximum Pressure Error:  0.59E+03 on Mesh   1 at (   8   7  11)
       ScaRC: iterations    36, residual  0.61E-08, convergence rate   0.49E+00
       ---------------------------------------------------------------
       Mesh    1
       Max CFL number:  0.89E+00 at (   6,   9,  12)
       Max divergence:  0.32E+01 at (   6,   9,  10)
       Min divergence: -0.23E+01 at (   8,   9,   8)
       Max div. error:  0.42E+01 at (   6,   9,  11)
       Max VN number:   0.35E+00 at (   6,   9,  12)
       Mesh    2
       Max CFL number:  0.46E+00 at (   1,  12,  16)
       Max divergence:  0.63E+00 at (   1,  10,  12)
       Min divergence: -0.18E+01 at (   6,  16,   7)
       Max div. error:  0.18E+01 at (   6,  16,   7)
       Max VN number:   0.17E+00 at (   1,   7,  12)
       Mesh    3
       Max CFL number:  0.43E+00 at (  16,   5,  16)
       Max divergence:  0.56E+00 at (  16,   5,   7)
       Min divergence: -0.18E+01 at (  16,  10,   7)
       Max div. error:  0.18E+01 at (  16,  10,   7)
       Max VN number:   0.25E+00 at (   7,  10,   7)
       Mesh    4
       Max CFL number:  0.43E+00 at (   1,   5,  14)
       Max divergence:  0.60E+00 at (   1,   5,   7)
       Min divergence: -0.18E+01 at (   1,  10,   7)
       Max div. error:  0.19E+01 at (   1,  10,   7)
       Max VN number:   0.17E+00 at (   1,   5,  13)
       Mesh    5
       Max CFL number:  0.76E+00 at (   8,   9,   1)
       Max divergence:  0.92E+00 at (  16,  11,   6)
       Min divergence: -0.64E+00 at (   8,  11,   6)
       Max div. error:  0.10E+01 at (   8,  11,   6)
       Max VN number:   0.45E+00 at (   8,  10,   5)
       Mesh    6
       Max CFL number:  0.48E+00 at (   1,  14,  13)
       Max divergence:  0.74E+00 at (   6,  16,   6)
       Min divergence: -0.32E+00 at (   1,   8,   5)
       Max div. error:  0.89E+00 at (   6,  16,   6)
       Max VN number:   0.30E+00 at (   1,   7,   5)
       Mesh    7
       Max CFL number:  0.47E+00 at (  16,   5,   5)
       Max divergence:  0.51E+00 at (  16,   6,   6)
       Min divergence: -0.33E+00 at (  16,  10,  10)
       Max div. error:  0.96E+00 at (  16,   6,   6)
       Max VN number:   0.25E+00 at (  16,  10,   5)
       Mesh    8
       Max CFL number:  0.41E+00 at (   3,   1,  15)
       Max divergence:  0.66E+00 at (   1,   6,   6)
       Min divergence: -0.36E+00 at (  10,   1,  10)
       Max div. error:  0.55E+00 at (   1,   6,   6)
       Max VN number:   0.27E+00 at (  10,   1,   5)
 
       Time Step     300   October 28, 2020  13:36:28
       Step Size:    0.482E-01 s, Total Time:      13.44 s
       Pressure Iterations:      4
       Maximum Velocity Error:  0.44E-15 on Mesh   1 at (   7   9  17)
       Maximum Pressure Error:  0.50E+03 on Mesh   1 at (   8   7  11)
       ScaRC: iterations    36, residual  0.65E-08, convergence rate   0.49E+00
       ---------------------------------------------------------------
       Mesh    1
       Max CFL number:  0.93E+00 at (   6,   8,  11)
       Max divergence:  0.29E+01 at (   6,   9,  10)
       Min divergence: -0.23E+01 at (   8,   9,   8)
       Max div. error:  0.38E+01 at (   6,   8,  11)
       Max VN number:   0.47E+00 at (   6,   7,  11)
       Mesh    2
       Max CFL number:  0.59E+00 at (   1,  12,  16)
       Max divergence:  0.57E+00 at (   5,  16,   7)
       Min divergence: -0.18E+01 at (   1,  11,   7)
       Max div. error:  0.19E+01 at (   1,  11,   7)
       Max VN number:   0.21E+00 at (   1,  12,  12)
       Mesh    3
       Max CFL number:  0.46E+00 at (  16,  11,  13)
       Max divergence:  0.63E+00 at (  16,   5,   7)
       Min divergence: -0.18E+01 at (  16,   6,   7)
       Max div. error:  0.19E+01 at (  16,   6,   7)
       Max VN number:   0.18E+00 at (  16,   6,   6)
       Mesh    4
       Max CFL number:  0.57E+00 at (   1,   5,  16)
       Max divergence:  0.66E+00 at (   1,   5,   7)
       Min divergence: -0.19E+01 at (   1,   6,   7)
       Max div. error:  0.20E+01 at (   1,   6,   7)
       Max VN number:   0.21E+00 at (   1,   5,  12)
       Mesh    5
       Max CFL number:  0.94E+00 at (   7,  10,   3)
       Max divergence:  0.60E+00 at (  16,   7,   6)
       Min divergence: -0.70E+00 at (   9,  11,   6)
       Max div. error:  0.12E+01 at (   8,  11,   6)
       Max VN number:   0.59E+00 at (   7,  11,   5)
       Mesh    6
       Max CFL number:  0.62E+00 at (   1,  12,   5)
       Max divergence:  0.10E+01 at (   1,  11,   6)
       Min divergence: -0.32E+00 at (   1,   7,   5)
       Max div. error:  0.12E+01 at (   1,  11,   6)
       Max VN number:   0.37E+00 at (  10,  16,   5)
       Mesh    7
       Max CFL number:  0.44E+00 at (  16,   4,  10)
       Max divergence:  0.35E+00 at (  16,  10,   6)
       Min divergence: -0.45E+00 at (  16,  10,  10)
       Max div. error:  0.49E+00 at (  16,  10,  10)
       Max VN number:   0.33E+00 at (  16,  10,   5)
       Mesh    8
       Max CFL number:  0.59E+00 at (   1,   4,  12)
       Max divergence:  0.54E+00 at (   1,   6,   6)
       Min divergence: -0.31E+00 at (   1,  10,  10)
       Max div. error:  0.78E+00 at (   1,   6,   6)
       Max VN number:   0.34E+00 at (   1,  10,   5)
 
       Time Step     400   October 28, 2020  13:38:25
       Step Size:    0.433E-01 s, Total Time:      17.80 s
       Pressure Iterations:      3
       Maximum Velocity Error:  0.22E-15 on Mesh   1 at (  15   7  17)
       Maximum Pressure Error:  0.46E+03 on Mesh   1 at (   8   7  11)
       ScaRC: iterations    36, residual  0.50E-08, convergence rate   0.49E+00
       ---------------------------------------------------------------
       Mesh    1
       Max CFL number:  0.90E+00 at (   6,   8,  12)
       Max divergence:  0.29E+01 at (   6,  10,  10)
       Min divergence: -0.23E+01 at (   8,   9,   8)
       Max div. error:  0.39E+01 at (   6,  10,  11)
       Max VN number:   0.37E+00 at (   7,   9,  12)
       Mesh    2
       Max CFL number:  0.39E+00 at (  11,  16,  13)
       Max divergence:  0.46E+00 at (   5,  16,   7)
       Min divergence: -0.14E+01 at (   1,   7,   7)
       Max div. error:  0.15E+01 at (   1,   7,   7)
       Max VN number:   0.17E+00 at (   1,  12,   9)
       Mesh    3
       Max CFL number:  0.32E+00 at (  16,  11,  16)
       Max divergence:  0.45E+00 at (  16,   9,   6)
       Min divergence: -0.14E+01 at (  16,  10,   7)
       Max div. error:  0.14E+01 at (  16,  10,   7)
       Max VN number:   0.16E+00 at (  16,   5,  10)
       Mesh    4
       Max CFL number:  0.41E+00 at (   2,   5,  16)
       Max divergence:  0.54E+00 at (   1,   8,   6)
       Min divergence: -0.14E+01 at (   6,   1,   7)
       Max div. error:  0.15E+01 at (   6,   1,   7)
       Max VN number:   0.17E+00 at (   6,   1,   6)
       Mesh    5
       Max CFL number:  0.82E+00 at (   8,  10,   2)
       Max divergence:  0.35E+00 at (  10,  11,  10)
       Min divergence: -0.66E+00 at (   9,  11,   6)
       Max div. error:  0.12E+01 at (   8,  11,   6)
       Max VN number:   0.54E+00 at (   9,  11,   5)
       Mesh    6
       Max CFL number:  0.51E+00 at (   3,  14,  12)
       Max divergence:  0.41E+00 at (  10,  16,   6)
       Min divergence: -0.17E+00 at (   5,  11,   6)
       Max div. error:  0.36E+00 at (  10,  16,   6)
       Max VN number:   0.24E+00 at (   1,   7,   5)
       Mesh    7
       Max CFL number:  0.36E+00 at (  16,   1,  16)
       Max divergence:  0.19E+00 at (  16,  10,   6)
       Min divergence: -0.29E+00 at (  16,   6,  10)
       Max div. error:  0.33E+00 at (  16,   6,  10)
       Max VN number:   0.21E+00 at (  16,  10,   5)
       Mesh    8
       Max CFL number:  0.48E+00 at (   2,   4,  11)
       Max divergence:  0.26E+00 at (   4,   6,   6)
       Min divergence: -0.17E+00 at (   1,   6,  10)
       Max div. error:  0.30E+00 at (  10,   1,   6)
       Max VN number:   0.23E+00 at (  10,   1,   5)
 
       Time Step     500   October 28, 2020  13:39:54
       Step Size:    0.469E-01 s, Total Time:      22.13 s
       Pressure Iterations:      2
       Maximum Velocity Error:  0.44E-15 on Mesh   1 at (   7  11  17)
       Maximum Pressure Error:  0.36E+03 on Mesh   1 at (   8   7  11)
       ScaRC: iterations    36, residual  0.54E-08, convergence rate   0.49E+00
       ---------------------------------------------------------------
       Mesh    1
       Max CFL number:  0.88E+00 at (   7,  10,  16)
       Max divergence:  0.28E+01 at (   6,   9,  10)
       Min divergence: -0.22E+01 at (   8,   9,   8)
       Max div. error:  0.35E+01 at (   6,  10,  11)
       Max VN number:   0.39E+00 at (   6,   8,  12)
       Mesh    2
       Max CFL number:  0.52E+00 at (   2,  12,  16)
       Max divergence:  0.46E+00 at (   5,  16,   7)
       Min divergence: -0.14E+01 at (   6,  16,   7)
       Max div. error:  0.15E+01 at (   6,  16,   7)
       Max VN number:   0.19E+00 at (   6,  16,   6)
       Mesh    3
       Max CFL number:  0.36E+00 at (  10,   4,   2)
       Max divergence:  0.48E+00 at (  16,   8,   6)
       Min divergence: -0.13E+01 at (  16,  10,   7)
       Max div. error:  0.13E+01 at (  16,  10,   7)
       Max VN number:   0.18E+00 at (  16,   5,   7)
       Mesh    4
       Max CFL number:  0.46E+00 at (   2,  12,  15)
       Max divergence:  0.50E+00 at (   1,   9,   6)
       Min divergence: -0.14E+01 at (   6,   1,   7)
       Max div. error:  0.14E+01 at (   6,   1,   7)
       Max VN number:   0.17E+00 at (   1,   5,   9)
       Mesh    5
       Max CFL number:  0.88E+00 at (   7,  10,   1)
       Max divergence:  0.40E+00 at (   7,  11,   7)
       Min divergence: -0.68E+00 at (   9,  11,   6)
       Max div. error:  0.12E+01 at (   7,  11,   6)
       Max VN number:   0.63E+00 at (   7,  11,   5)
       Mesh    6
       Max CFL number:  0.53E+00 at (   2,  14,  14)
       Max divergence:  0.38E+00 at (   5,  12,   6)
       Min divergence: -0.29E+00 at (   1,   9,   5)
       Max div. error:  0.47E+00 at (  10,  16,   6)
       Max VN number:   0.35E+00 at (   4,  11,   5)
       Mesh    7
       Max CFL number:  0.32E+00 at (   7,  10,   2)
       Max divergence:  0.27E+00 at (  11,  10,   1)
       Min divergence: -0.27E+00 at (  16,   6,  10)
       Max div. error:  0.34E+00 at (  11,   6,   1)
       Max VN number:   0.19E+00 at (   8,  10,  10)
       Mesh    8
       Max CFL number:  0.43E+00 at (   4,   5,   5)
       Max divergence:  0.35E+00 at (   3,   6,  10)
       Min divergence: -0.18E+00 at (   1,   6,   6)
       Max div. error:  0.44E+00 at (   4,   6,  10)
       Max VN number:   0.28E+00 at (   3,  10,   5)
 
       Time Step     600   October 28, 2020  13:41:19
       Step Size:    0.406E-01 s, Total Time:      26.73 s
       Pressure Iterations:      2
       Maximum Velocity Error:  0.44E-15 on Mesh   1 at (   7   9  17)
       Maximum Pressure Error:  0.38E+03 on Mesh   1 at (   6   9  11)
       ScaRC: iterations    36, residual  0.84E-08, convergence rate   0.49E+00
       ---------------------------------------------------------------
       Mesh    1
       Max CFL number:  0.90E+00 at (   6,   9,  12)
       Max divergence:  0.32E+01 at (   6,   9,  10)
       Min divergence: -0.22E+01 at (   8,   9,   8)
       Max div. error:  0.47E+01 at (   6,   9,  11)
       Max VN number:   0.35E+00 at (   6,   9,  12)
       Mesh    2
       Max CFL number:  0.29E+00 at (   5,  16,   9)
       Max divergence:  0.81E+00 at (   6,  16,  11)
       Min divergence: -0.91E+00 at (   1,   7,   7)
       Max div. error:  0.11E+01 at (   6,  16,  11)
       Max VN number:   0.13E+00 at (   1,  11,   6)
       Mesh    3
       Max CFL number:  0.52E+00 at (   7,   6,  16)
       Max divergence:  0.19E+01 at (   7,  10,  16)
       Min divergence: -0.91E+00 at (   7,   6,   7)
       Max div. error:  0.19E+01 at (  11,  10,  16)
       Max VN number:   0.29E+00 at (   7,   6,  16)
       Mesh    4
       Max CFL number:  0.35E+00 at (   4,   5,   2)
       Max divergence:  0.70E+00 at (  10,   1,  11)
       Min divergence: -0.86E+00 at (  10,   1,   7)
       Max div. error:  0.89E+00 at (  10,   1,   7)
       Max VN number:   0.16E+00 at (   1,   5,   8)
       Mesh    5
       Max CFL number:  0.84E+00 at (   8,   9,   4)
       Max divergence:  0.93E+00 at (   6,   8,   6)
       Min divergence: -0.91E+00 at (   8,  11,   6)
       Max div. error:  0.13E+01 at (   8,  11,   6)
       Max VN number:   0.48E+00 at (   9,  10,   5)
       Mesh    6
       Max CFL number:  0.38E+00 at (   3,  13,  16)
       Max divergence:  0.19E+00 at (   5,  16,   6)
       Min divergence: -0.41E+00 at (   6,  16,   6)
       Max div. error:  0.56E+00 at (   6,  16,   6)
       Max VN number:   0.24E+00 at (   1,  11,   5)
       Mesh    7
       Max CFL number:  0.60E+00 at (   7,  10,   3)
       Max divergence:  0.16E+01 at (   7,  10,   1)
       Min divergence: -0.13E+01 at (  16,  10,  10)
       Max div. error:  0.22E+01 at (   7,  10,   1)
       Max VN number:   0.32E+00 at (  10,   6,   7)
       Mesh    8
       Max CFL number:  0.46E+00 at (   4,  10,  10)
       Max divergence:  0.50E+00 at (   1,  10,  11)
       Min divergence: -0.11E+01 at (   1,  10,  10)
       Max div. error:  0.14E+01 at (   1,  10,  10)
       Max VN number:   0.17E+00 at (   6,   3,   5)
 
       Time Step     700   October 28, 2020  13:43:08
       Step Size:    0.346E-01 s, Total Time:      30.76 s
       Pressure Iterations:      4
       Maximum Velocity Error:  0.22E-15 on Mesh   1 at (   5  10  17)
       Maximum Pressure Error:  0.10E+04 on Mesh   7 at (   7  10  10)
       ScaRC: iterations    37, residual  0.46E-08, convergence rate   0.48E+00
       ---------------------------------------------------------------
       Mesh    1
       Max CFL number:  0.69E+00 at (   6,  10,  15)
       Max divergence:  0.29E+01 at (   6,  10,  10)
       Min divergence: -0.24E+01 at (   8,   9,   8)
       Max div. error:  0.40E+01 at (   6,   8,  10)
       Max VN number:   0.29E+00 at (   7,  10,  12)
       Mesh    2
       Max CFL number:  0.24E+00 at (   1,  12,  10)
       Max divergence:  0.41E+00 at (  10,  16,  11)
       Min divergence: -0.89E+00 at (   1,  11,   7)
       Max div. error:  0.93E+00 at (   1,  11,   7)
       Max VN number:   0.12E+00 at (   6,  16,   6)
       Mesh    3
       Max CFL number:  0.56E+00 at (   9,   5,   2)
       Max divergence:  0.62E+01 at (   7,  10,  16)
       Min divergence: -0.24E+01 at (   6,  10,  16)
       Max div. error:  0.63E+01 at (   7,  10,  16)
       Max VN number:   0.27E+00 at (  12,   8,  12)
       Mesh    4
       Max CFL number:  0.34E+00 at (   1,   3,   1)
       Max divergence:  0.75E+00 at (   1,   6,  11)
       Min divergence: -0.65E+00 at (  10,   1,   7)
       Max div. error:  0.11E+01 at (   1,   6,  11)
       Max VN number:   0.13E+00 at (   5,   2,   7)
       Mesh    5
       Max CFL number:  0.69E+00 at (   6,  11,   2)
       Max divergence:  0.64E+00 at (   6,  11,   6)
       Min divergence: -0.47E+00 at (   6,  11,   1)
       Max div. error:  0.72E+00 at (   8,  11,   6)
       Max VN number:   0.47E+00 at (   8,  11,   5)
       Mesh    6
       Max CFL number:  0.32E+00 at (   1,   6,  12)
       Max divergence:  0.40E+00 at (   9,  16,   5)
       Min divergence: -0.10E+01 at (  10,  16,   6)
       Max div. error:  0.12E+01 at (  10,  16,   6)
       Max VN number:   0.14E+00 at (   1,   7,   5)
       Mesh    7
       Max CFL number:  0.98E+00 at (   7,  10,   4)
       Max divergence:  0.93E+01 at (   7,  10,   1)
       Min divergence: -0.32E+01 at (  16,   6,  10)
       Max div. error:  0.13E+02 at (   7,  10,   1)
       Max VN number:   0.46E+00 at (  11,  10,  10)
       Mesh    8
       Max CFL number:  0.55E+00 at (   4,   6,   8)
       Max divergence:  0.88E+00 at (   1,   7,  11)
       Min divergence: -0.28E+01 at (   1,   6,  10)
       Max div. error:  0.33E+01 at (   1,   6,  10)
       Max VN number:   0.32E+00 at (  10,   6,   8)
 
       Time Step     800   October 28, 2020  13:46:11
       Step Size:    0.328E-01 s, Total Time:      34.03 s
       Pressure Iterations:      4
       Maximum Velocity Error:  0.44E-15 on Mesh   6 at (  10  17   8)
       Maximum Pressure Error:  0.96E+03 on Mesh   7 at (  11  10   1)
       ScaRC: iterations    37, residual  0.50E-08, convergence rate   0.48E+00
       ---------------------------------------------------------------
       Mesh    1
       Max CFL number:  0.64E+00 at (   6,   8,  11)
       Max divergence:  0.30E+01 at (   6,   9,  11)
       Min divergence: -0.23E+01 at (   8,   9,   8)
       Max div. error:  0.43E+01 at (   6,   8,  11)
       Max VN number:   0.27E+00 at (   6,   7,  11)
       Mesh    2
       Max CFL number:  0.24E+00 at (   4,  16,   3)
       Max divergence:  0.27E+00 at (   1,   9,   9)
       Min divergence: -0.65E+00 at (   1,  11,   7)
       Max div. error:  0.73E+00 at (   1,  11,   7)
       Max VN number:   0.14E+00 at (   7,  12,  11)
       Mesh    3
       Max CFL number:  0.52E+00 at (  10,   5,   4)
       Max divergence:  0.65E+01 at (  11,  10,  16)
       Min divergence: -0.30E+01 at (  12,  10,  16)
       Max div. error:  0.67E+01 at (  11,  10,  16)
       Max VN number:   0.28E+00 at (  12,   6,  12)
       Mesh    4
       Max CFL number:  0.39E+00 at (   1,   5,   3)
       Max divergence:  0.49E+00 at (   1,   7,  11)
       Min divergence: -0.58E+00 at (  10,   1,   7)
       Max div. error:  0.70E+00 at (   1,   7,  12)
       Max VN number:   0.17E+00 at (   3,   5,  10)
       Mesh    5
       Max CFL number:  0.59E+00 at (   7,  10,   1)
       Max divergence:  0.82E+00 at (   6,   9,   6)
       Min divergence: -0.12E+01 at (   6,  10,   6)
       Max div. error:  0.95E+00 at (   7,  11,   6)
       Max VN number:   0.46E+00 at (   8,  11,   5)
       Mesh    6
       Max CFL number:  0.35E+00 at (  10,  15,   8)
       Max divergence:  0.30E+00 at (  11,  16,   6)
       Min divergence: -0.75E+00 at (  10,  16,   6)
       Max div. error:  0.85E+00 at (  10,  16,   6)
       Max VN number:   0.19E+00 at (  10,   7,   9)
       Mesh    7
       Max CFL number:  0.88E+00 at (  11,  10,   1)
       Max divergence:  0.10E+02 at (  11,  10,   1)
       Min divergence: -0.43E+01 at (  16,   6,  10)
       Max div. error:  0.14E+02 at (  11,  10,   1)
       Max VN number:   0.43E+00 at (  11,  10,  10)
       Mesh    8
       Max CFL number:  0.71E+00 at (   1,   7,  10)
       Max divergence:  0.16E+01 at (   1,   7,  11)
       Min divergence: -0.38E+01 at (   1,   6,  10)
       Max div. error:  0.44E+01 at (   1,   6,  10)
       Max VN number:   0.40E+00 at (  10,   6,   9)
 
       Time Step     900   October 28, 2020  13:49:20
       Step Size:    0.360E-01 s, Total Time:      37.25 s
       Pressure Iterations:      5
       Maximum Velocity Error:  0.44E-15 on Mesh   1 at (   7   9  17)
       Maximum Pressure Error:  0.11E+04 on Mesh   7 at (   7  10  10)
       ScaRC: iterations    37, residual  0.45E-08, convergence rate   0.48E+00
       ---------------------------------------------------------------
       Mesh    1
       Max CFL number:  0.77E+00 at (   6,  10,  12)
       Max divergence:  0.28E+01 at (   6,   9,  11)
       Min divergence: -0.23E+01 at (   8,   9,   8)
       Max div. error:  0.48E+01 at (   6,   9,  10)
       Max VN number:   0.30E+00 at (   6,  10,  12)
       Mesh    2
       Max CFL number:  0.26E+00 at (   6,  11,  11)
       Max divergence:  0.28E+00 at (   1,   9,   9)
       Min divergence: -0.69E+00 at (   1,  11,   7)
       Max div. error:  0.81E+00 at (   1,  11,   7)
       Max VN number:   0.15E+00 at (   7,  10,  11)
       Mesh    3
       Max CFL number:  0.63E+00 at (   9,   5,   6)
       Max divergence:  0.53E+01 at (  11,  10,  16)
       Min divergence: -0.23E+01 at (   7,   6,   7)
       Max div. error:  0.51E+01 at (  11,  10,  16)
       Max VN number:   0.31E+00 at (  12,   9,  12)
       Mesh    4
       Max CFL number:  0.44E+00 at (   1,   5,   2)
       Max divergence:  0.47E+00 at (   1,   7,  11)
       Min divergence: -0.64E+00 at (  10,   1,   7)
       Max div. error:  0.70E+00 at (   1,   6,  11)
       Max VN number:   0.15E+00 at (   1,   6,  12)
       Mesh    5
       Max CFL number:  0.66E+00 at (   8,   9,   2)
       Max divergence:  0.77E+00 at (   6,   7,   6)
       Min divergence: -0.66E+00 at (   8,  11,   6)
       Max div. error:  0.82E+00 at (   8,  11,   6)
       Max VN number:   0.37E+00 at (   7,   9,   5)
       Mesh    6
       Max CFL number:  0.37E+00 at (  10,  12,   8)
       Max divergence:  0.34E+00 at (   1,   7,  10)
       Min divergence: -0.87E+00 at (  10,  16,   6)
       Max div. error:  0.95E+00 at (  10,  16,   6)
       Max VN number:   0.17E+00 at (  10,  12,   7)
       Mesh    7
       Max CFL number:  0.86E+00 at (   7,  10,   3)
       Max divergence:  0.71E+01 at (  11,  10,   1)
       Min divergence: -0.43E+01 at (  16,   6,  10)
       Max div. error:  0.91E+01 at (  11,  10,   1)
       Max VN number:   0.53E+00 at (  11,  10,  10)
       Mesh    8
       Max CFL number:  0.71E+00 at (   2,   6,  10)
       Max divergence:  0.14E+01 at (   1,   7,  11)
       Min divergence: -0.36E+01 at (   1,   6,  10)
       Max div. error:  0.42E+01 at (   1,   6,  10)
       Max VN number:   0.43E+00 at (  10,   6,   9)
 
       Time Step    1000   October 28, 2020  13:52:10
       Step Size:    0.355E-01 s, Total Time:      40.61 s
       Pressure Iterations:      4
       Maximum Velocity Error:  0.44E-15 on Mesh   1 at (   7   8  17)
       Maximum Pressure Error:  0.57E+03 on Mesh   7 at (  12  10  10)
       ScaRC: iterations    37, residual  0.46E-08, convergence rate   0.49E+00
       ---------------------------------------------------------------
       Mesh    1
       Max CFL number:  0.64E+00 at (   6,  10,  12)
       Max divergence:  0.27E+01 at (   6,   9,  10)
       Min divergence: -0.23E+01 at (   8,   9,   8)
       Max div. error:  0.39E+01 at (   6,   8,  10)
       Max VN number:   0.27E+00 at (   6,  10,  12)
       Mesh    2
       Max CFL number:  0.25E+00 at (   5,  16,   6)
       Max divergence:  0.37E+00 at (   6,  16,  11)
       Min divergence: -0.80E+00 at (   1,  11,   7)
       Max div. error:  0.87E+00 at (   1,  11,   7)
       Max VN number:   0.13E+00 at (  10,   9,  11)
       Mesh    3
       Max CFL number:  0.56E+00 at (  10,   5,   6)
       Max divergence:  0.48E+01 at (  11,  10,  16)
       Min divergence: -0.18E+01 at (  12,  10,  16)
       Max div. error:  0.46E+01 at (  11,  10,  16)
       Max VN number:   0.27E+00 at (  12,   9,  12)
       Mesh    4
       Max CFL number:  0.52E+00 at (   1,   5,   2)
       Max divergence:  0.50E+00 at (   1,   7,  11)
       Min divergence: -0.67E+00 at (   1,  10,   7)
       Max div. error:  0.70E+00 at (   1,  10,   7)
       Max VN number:   0.15E+00 at (   1,   5,   2)
       Mesh    5
       Max CFL number:  0.60E+00 at (   8,   9,   1)
       Max divergence:  0.63E+00 at (   6,   7,   6)
       Min divergence: -0.94E+00 at (   9,  11,   6)
       Max div. error:  0.12E+01 at (   9,  11,   6)
       Max VN number:   0.38E+00 at (   9,  10,   5)
       Mesh    6
       Max CFL number:  0.35E+00 at (  10,  12,  10)
       Max divergence:  0.31E+00 at (   6,  16,  10)
       Min divergence: -0.43E+00 at (  10,  16,   6)
       Max div. error:  0.53E+00 at (  10,  16,   6)
       Max VN number:   0.16E+00 at (  10,   9,   7)
       Mesh    7
       Max CFL number:  0.85E+00 at (  11,  10,   4)
       Max divergence:  0.55E+01 at (  11,  10,   1)
       Min divergence: -0.36E+01 at (  16,   6,  10)
       Max div. error:  0.75E+01 at (  11,  10,   1)
       Max VN number:   0.36E+00 at (   9,  10,  10)
       Mesh    8
       Max CFL number:  0.64E+00 at (   6,   6,  10)
       Max divergence:  0.14E+01 at (   1,   8,  11)
       Min divergence: -0.28E+01 at (   1,   6,  10)
       Max div. error:  0.34E+01 at (   1,   6,  10)
       Max VN number:   0.34E+00 at (   7,   7,  10)
 
       Time Step    1100   October 28, 2020  13:54:52
       Step Size:    0.330E-01 s, Total Time:      44.29 s
       Pressure Iterations:      4
       Maximum Velocity Error:  0.44E-15 on Mesh   1 at (   8   9  17)
       Maximum Pressure Error:  0.91E+03 on Mesh   7 at (  11  10  10)
       ScaRC: iterations    37, residual  0.49E-08, convergence rate   0.48E+00
       ---------------------------------------------------------------
       Mesh    1
       Max CFL number:  0.57E+00 at (   6,  10,  12)
       Max divergence:  0.26E+01 at (   6,   9,  10)
       Min divergence: -0.23E+01 at (   8,   9,   8)
       Max div. error:  0.36E+01 at (   6,  10,  10)
       Max VN number:   0.24E+00 at (   6,   8,  12)
       Mesh    2
       Max CFL number:  0.28E+00 at (   5,  16,   6)
       Max divergence:  0.32E+00 at (   6,  16,  11)
       Min divergence: -0.64E+00 at (   1,  10,  11)
       Max div. error:  0.73E+00 at (   1,   7,   7)
       Max VN number:   0.13E+00 at (   7,  10,  11)
       Mesh    3
       Max CFL number:  0.53E+00 at (  16,   5,   1)
       Max divergence:  0.58E+01 at (  11,  10,  16)
       Min divergence: -0.25E+01 at (  12,  10,  16)
       Max div. error:  0.58E+01 at (  11,  10,  16)
       Max VN number:   0.26E+00 at (  12,   6,  12)
       Mesh    4
       Max CFL number:  0.51E+00 at (   1,   5,   1)
       Max divergence:  0.55E+00 at (   1,   7,  11)
       Min divergence: -0.62E+00 at (  10,   1,   7)
       Max div. error:  0.82E+00 at (   1,   6,  11)
       Max VN number:   0.20E+00 at (   4,   5,   9)
       Mesh    5
       Max CFL number:  0.57E+00 at (   8,   9,   2)
       Max divergence:  0.11E+01 at (   6,  11,   6)
       Min divergence: -0.69E+00 at (   6,   9,   6)
       Max div. error:  0.83E+00 at (   8,  11,   6)
       Max VN number:   0.43E+00 at (   8,   9,   5)
       Mesh    6
       Max CFL number:  0.36E+00 at (  10,  12,   8)
       Max divergence:  0.31E+00 at (  11,  16,   6)
       Min divergence: -0.79E+00 at (  10,  16,   6)
       Max div. error:  0.93E+00 at (  10,  16,   6)
       Max VN number:   0.15E+00 at (   8,  16,   6)
       Mesh    7
       Max CFL number:  0.89E+00 at (  11,  10,   4)
       Max divergence:  0.83E+01 at (  11,  10,   1)
       Min divergence: -0.42E+01 at (  11,  10,   5)
       Max div. error:  0.11E+02 at (  11,  10,   1)
       Max VN number:   0.58E+00 at (  11,  10,  10)
       Mesh    8
       Max CFL number:  0.58E+00 at (   1,   9,  10)
       Max divergence:  0.11E+01 at (   1,   8,  11)
       Min divergence: -0.30E+01 at (   1,   6,  10)
       Max div. error:  0.34E+01 at (   1,   6,  10)
       Max VN number:   0.35E+00 at (  10,   6,   9)
 
       Time Step    1200   October 28, 2020  13:57:42
       Step Size:    0.389E-01 s, Total Time:      47.72 s
       Pressure Iterations:      4
       Maximum Velocity Error:  0.44E-15 on Mesh   1 at (   9  11  17)
       Maximum Pressure Error:  0.70E+03 on Mesh   7 at (  11  10  10)
       ScaRC: iterations    36, residual  0.93E-08, convergence rate   0.49E+00
       ---------------------------------------------------------------
       Mesh    1
       Max CFL number:  0.73E+00 at (   6,   9,  11)
       Max divergence:  0.34E+01 at (   6,   9,  10)
       Min divergence: -0.23E+01 at (   8,   9,   8)
       Max div. error:  0.46E+01 at (   6,   8,  10)
       Max VN number:   0.51E+00 at (   6,   8,  11)
       Mesh    2
       Max CFL number:  0.37E+00 at (   1,  12,  15)
       Max divergence:  0.34E+00 at (   6,  16,  11)
       Min divergence: -0.99E+00 at (   1,  11,   7)
       Max div. error:  0.11E+01 at (   1,  11,   7)
       Max VN number:   0.16E+00 at (   7,  10,  11)
       Mesh    3
       Max CFL number:  0.59E+00 at (  10,  11,   2)
       Max divergence:  0.52E+01 at (  11,  10,  16)
       Min divergence: -0.21E+01 at (  12,  10,  16)
       Max div. error:  0.51E+01 at (  11,  10,  16)
       Max VN number:   0.30E+00 at (  12,   6,  12)
       Mesh    4
       Max CFL number:  0.52E+00 at (   1,   5,   3)
       Max divergence:  0.51E+00 at (   1,   7,   6)
       Min divergence: -0.79E+00 at (  10,   1,   7)
       Max div. error:  0.82E+00 at (  10,   1,   7)
       Max VN number:   0.20E+00 at (   1,  10,  12)
       Mesh    5
       Max CFL number:  0.76E+00 at (   9,  12,  15)
       Max divergence:  0.68E+00 at (   9,  11,  10)
       Min divergence: -0.51E+00 at (   6,   9,   5)
       Max div. error:  0.96E+00 at (   9,  11,  10)
       Max VN number:   0.54E+00 at (   8,  11,   5)
       Mesh    6
       Max CFL number:  0.32E+00 at (  10,  16,   9)
       Max divergence:  0.32E+00 at (   1,   7,  10)
       Min divergence: -0.63E+00 at (  10,  16,   6)
       Max div. error:  0.77E+00 at (  10,  16,   6)
       Max VN number:   0.21E+00 at (  10,   7,   6)
       Mesh    7
       Max CFL number:  0.95E+00 at (  11,  10,   4)
       Max divergence:  0.64E+01 at (  11,  10,   1)
       Min divergence: -0.41E+01 at (  16,   6,  10)
       Max div. error:  0.89E+01 at (  11,  10,   1)
       Max VN number:   0.54E+00 at (  11,  10,  10)
       Mesh    8
       Max CFL number:  0.70E+00 at (   2,   6,  10)
       Max divergence:  0.11E+01 at (   1,   7,  11)
       Min divergence: -0.37E+01 at (   1,   6,  10)
       Max div. error:  0.41E+01 at (   1,   6,  10)
       Max VN number:   0.45E+00 at (  10,   6,   8)
 
