
 Fire Dynamics Simulator

 Current Date     : October 12, 2020  13:40:24
 Revision         : FDS6.7.5-254-g2178300-master
 Revision Date    : Fri Oct 9 15:16:47 2020 -0400
 Compiler         : Intel ifort 18.0.1
 Compilation Date : Oct 12, 2020 10:43:49

 MPI Enabled;    Number of MPI Processes:       7
 OpenMP Enabled; Number of OpenMP Threads:      2

 MPI version: 3.1
 MPI library version: Intel(R) MPI Library 2018 Update 1 for Linux* OS


 Job TITLE        : 
 Job ID string    : goldbeck_fft2


 Grid Dimensions, Mesh     1

   Cells in the X Direction           164
   Cells in the Y Direction            60
   Cells in the Z Direction            40
   Number of Grid Cells            393600


 Physical Dimensions, Mesh     1

   Length (m)                      32.800
   Width  (m)                      12.000
   Height (m)                       8.000
   Initial Time Step (s)            0.112

 Grid Dimensions, Mesh     2

   Cells in the X Direction           164
   Cells in the Y Direction            60
   Cells in the Z Direction            40
   Number of Grid Cells            393600


 Physical Dimensions, Mesh     2

   Length (m)                      32.800
   Width  (m)                      12.000
   Height (m)                       8.000
   Initial Time Step (s)            0.112

 Grid Dimensions, Mesh     3

   Cells in the X Direction           164
   Cells in the Y Direction            60
   Cells in the Z Direction            40
   Number of Grid Cells            393600


 Physical Dimensions, Mesh     3

   Length (m)                      32.800
   Width  (m)                      12.000
   Height (m)                       8.000
   Initial Time Step (s)            0.112

 Grid Dimensions, Mesh     4

   Cells in the X Direction           168
   Cells in the Y Direction            60
   Cells in the Z Direction            40
   Number of Grid Cells            403200


 Physical Dimensions, Mesh     4

   Length (m)                      33.600
   Width  (m)                      12.000
   Height (m)                       8.000
   Initial Time Step (s)            0.112

 Grid Dimensions, Mesh     5

   Cells in the X Direction            78
   Cells in the Y Direction            60
   Cells in the Z Direction            40
   Number of Grid Cells            187200


 Physical Dimensions, Mesh     5

   Length (m)                      15.600
   Width  (m)                      12.000
   Height (m)                       8.000
   Initial Time Step (s)            0.112

 Grid Dimensions, Mesh     6

   Cells in the X Direction            90
   Cells in the Y Direction            60
   Cells in the Z Direction            40
   Number of Grid Cells            216000


 Physical Dimensions, Mesh     6

   Length (m)                      18.000
   Width  (m)                      12.000
   Height (m)                       8.000
   Initial Time Step (s)            0.112

 Grid Dimensions, Mesh     7

   Cells in the X Direction           168
   Cells in the Y Direction            60
   Cells in the Z Direction            40
   Number of Grid Cells            403200


 Physical Dimensions, Mesh     7

   Length (m)                      33.600
   Width  (m)                      12.000
   Height (m)                       8.000
   Initial Time Step (s)            0.112

Total Number of Grid Cells       2390400


 Miscellaneous Parameters

   Simulation Start Time (s)          0.0
   Simulation End Time (s)          400.0
   LES Calculation
   Eddy Viscosity:           Deardorff Model (C_DEARDORFF = 0.10)
   Near-wall Eddy Viscosity: Smagorinsky with Van Driest damping (C_SMAGORINSKY = 0.20)
   Turbulent Prandtl Number:         0.50
   Turbulent Schmidt Number:         0.50
   Ambient Temperature (C):         20.00


 Mass Fraction Transformation Matrix to Convert Species Mixtures (Columns) to Primitive Species (Rows)

                         AIR       REAC_FUE  PRODUCTS
   REAC_FUEL             0.000000  1.000000  0.000000
   NITROGEN              0.762470  0.000000  0.702658
   OXYGEN                0.230997  0.000000  0.000000
   CARBON DIOXIDE        0.000591  0.000000  0.213555
   CARBON MONOXIDE       0.000000  0.000000  0.000000
   WATER VAPOR           0.005941  0.000000  0.076457
   SOOT                  0.000000  0.000000  0.007330
   HYDROGEN              0.000000  0.000000  0.000000


 Primitive Species Information

   REAC_FUEL
   Gas Species
   Molecular Weight (g/mol)            14.95845
   Ambient Density (kg/m^3)            0.622
   Enthalpy of Formation (J/kg)       -9.27E+06

   NITROGEN
   Gas Species
   Molecular Weight (g/mol)            28.01340
   Ambient Density (kg/m^3)            1.165
   Enthalpy of Formation (J/kg)        0.00E+00

   OXYGEN
   Gas Species
   Molecular Weight (g/mol)            31.99880
   Ambient Density (kg/m^3)            1.330
   Enthalpy of Formation (J/kg)        0.00E+00

   CARBON DIOXIDE
   Gas Species
   Molecular Weight (g/mol)            44.00950
   Ambient Density (kg/m^3)            1.830
   Enthalpy of Formation (J/kg)       -8.94E+06

   CARBON MONOXIDE
   Gas Species
   Molecular Weight (g/mol)            28.01010
   Ambient Density (kg/m^3)            1.164
   Enthalpy of Formation (J/kg)       -3.95E+06

   WATER VAPOR
   Gas Species
   Molecular Weight (g/mol)            18.01528
   Ambient Density (kg/m^3)            0.749
   Enthalpy of Formation (J/kg)       -1.34E+07

   SOOT
   Gas Species
   Molecular Weight (g/mol)            10.91042
   Ambient Density (kg/m^3)            0.454
   Enthalpy of Formation (J/kg)        0.00E+00

   HYDROGEN
   Gas Species
   Molecular Weight (g/mol)             2.01588
   Ambient Density (kg/m^3)            0.084
   Enthalpy of Formation (J/kg)        0.00E+00


 Tracked (Lumped) Species Information

   AIR
   Molecular Weight (g/mol)            28.75199
   Ambient Density (kg/m^3)            1.195
   Initial Mass Fraction               1.000
   Enthalpy of Formation (J/kg)     -8.50E+04

   Sub Species                    Mass Fraction     Mole Fraction
   NITROGEN                       7.624701E-01      7.825730E-01
   OXYGEN                         2.309974E-01      2.075589E-01
   CARBON DIOXIDE                 5.914651E-04      3.864120E-04
   WATER VAPOR                    5.940984E-03      9.481679E-03
 
     Viscosity (kg/m/s) Ambient,  293 K:  1.80E-05
                                  500 K:  2.61E-05
                                 1000 K:  4.13E-05
                                 1500 K:  5.37E-05
   Therm. Cond. (W/m/K) Ambient,  293 K:  2.56E-02
                                  500 K:  3.81E-02
                                 1000 K:  6.69E-02
                                 1500 K:  9.25E-02
        Enthalpy (J/kg) Ambient,  293 K: -9.01E+04
                                  500 K:  1.22E+05
                                 1000 K:  6.72E+05
                                 1500 K:  1.27E+06
    Spec. Heat (J/kg/K) Ambient,  293 K:  1.02E+03
                                  500 K:  1.04E+03
                                 1000 K:  1.16E+03
                                 1500 K:  1.23E+03
   Diff. Coeff. (m^2/s) Ambient,  293 K:  1.99E-05
                                  500 K:  4.96E-05
                                 1000 K:  1.58E-04
                                 1500 K:  3.09E-04

   REAC_FUEL
   Molecular Weight (g/mol)            14.95845
   Ambient Density (kg/m^3)            0.622
   Initial Mass Fraction               0.000
   Enthalpy of Formation (J/kg)     -9.27E+06

   Sub Species                    Mass Fraction     Mole Fraction
   REAC_FUEL                      1.000000E+00      1.000000E+00
 
     Viscosity (kg/m/s) Ambient,  293 K:  1.27E-05
                                  500 K:  1.84E-05
                                 1000 K:  2.89E-05
                                 1500 K:  3.75E-05
   Therm. Cond. (W/m/K) Ambient,  293 K:  3.48E-02
                                  500 K:  5.03E-02
                                 1000 K:  7.91E-02
                                 1500 K:  1.03E-01
        Enthalpy (J/kg) Ambient,  293 K: -9.28E+06
                                  500 K: -8.87E+06
                                 1000 K: -7.90E+06
                                 1500 K: -6.93E+06
    Spec. Heat (J/kg/K) Ambient,  293 K:  1.95E+03
                                  500 K:  1.95E+03
                                 1000 K:  1.95E+03
                                 1500 K:  1.95E+03
   Diff. Coeff. (m^2/s) Ambient,  293 K:  2.38E-05
                                  500 K:  5.91E-05
                                 1000 K:  1.88E-04
                                 1500 K:  3.68E-04

   PRODUCTS
   Molecular Weight (g/mol)            28.69337
   Ambient Density (kg/m^3)            1.193
   Initial Mass Fraction               0.000
   Enthalpy of Formation (J/kg)     -2.94E+06

   Sub Species                    Mass Fraction     Mole Fraction
   NITROGEN                       7.026583E-01      7.197139E-01
   CARBON DIOXIDE                 2.135546E-01      1.392336E-01
   CARBON MONOXIDE                0.000000E+00      0.000000E+00
   WATER VAPOR                    7.645708E-02      1.217750E-01
   SOOT                           7.330093E-03      1.927744E-02
 
     Viscosity (kg/m/s) Ambient,  293 K:  1.62E-05
                                  500 K:  2.40E-05
                                 1000 K:  3.89E-05
                                 1500 K:  5.12E-05
   Therm. Cond. (W/m/K) Ambient,  293 K:  2.32E-02
                                  500 K:  3.61E-02
                                 1000 K:  6.68E-02
                                 1500 K:  9.51E-02
        Enthalpy (J/kg) Ambient,  293 K: -2.94E+06
                                  500 K: -2.72E+06
                                 1000 K: -2.12E+06
                                 1500 K: -1.45E+06
    Spec. Heat (J/kg/K) Ambient,  293 K:  1.06E+03
                                  500 K:  1.12E+03
                                 1000 K:  1.27E+03
                                 1500 K:  1.37E+03
   Diff. Coeff. (m^2/s) Ambient,  293 K:  1.95E-05
                                  500 K:  4.92E-05
                                 1000 K:  1.58E-04
                                 1500 K:  3.11E-04


 Gas Phase Reaction Information

   Mischbrandlast aus:		40% Polyethylen,30% Styropor, 30% Polyurethan

   Reaction ID:  Reaction1

   Fuel                                           Heat of Combustion (kJ/kg)
   REAC_FUEL                                                      25820.0000

   Stoichiometry

   Primitive Species Stoich. Coeff.
   Species ID                                                          Molar
   REAC_FUEL                                                       -1.000000
   NITROGEN                                                         0.015000
   OXYGEN                                                          -1.217862
   CARBON DIOXIDE                                                   0.888947
   WATER VAPOR                                                      0.723830
   SOOT                                                             0.123392

   Tracked (Lumped) Species Stoich. Coeff.
   Species ID                                             Molar         Mass
   AIR                                                -5.867550   -11.278153
   REAC_FUEL                                          -1.000000    -1.000000
   PRODUCTS                                            6.400858    12.278153

   Reaction Kinetics

   Arrhenius Parameters
   Pre-exponential:    Infinite
   Activation Energy:  N/A

   ODE Solver:  EXPLICIT EULER
   Extinction Model:  EXTINCTION 2
   Auto-Ignition Temperature (K):       0.0
   Critical Flame Temperature (K):   1700.2


 Material Information

   1 CONCRETE                                                    
     Stahlbeton C30-C37 WU
     Emissivity                      0.900
     Density (kg/m3)                2400.0
     Specific Heat (kJ/kg/K)      1.00E+00
     Conductivity (W/m/K)          2.10E+00

   2 STEEL                                                       
     Drysdale, Intro to Fire Dynamics - ATF NIST Multi-Floor Validation
     Emissivity                     95.000
     Density (kg/m3)                7850.0
     Specific Heat (kJ/kg/K)      4.60E-01
     Conductivity (W/m/K)          4.58E+01


 Surface Conditions

   0 INERT (DEFAULT)

   1 ADIABATIC

   2 BETON
     Material List
          1  CONCRETE
     Layer  1
        Thickness   (m):  0.10000
        Density (kg/m3):  2400.00
        CONCRETE, Mass fraction:    1.00
     Total surface density   240.000 kg/m2
     Reaction products considered from the first  0.50 layers.
     Solid Phase Node, Layer, Coordinates(m):
                    0      1       0.0000000
                    1      1       0.0007937
                    2      1       0.0023810
                    3      1       0.0055556
                    4      1       0.0119048
                    5      1       0.0246032
                    6      1       0.0500000
                    7      1       0.0753968
                    8      1       0.0880952
                    9      1       0.0944444
                   10      1       0.0976190
                   11      1       0.0992063
                   12      1       0.1000000
     Exposed Backing

   3 STAHL
     Material List
          1  STEEL
     Layer  1
        Thickness   (m):  0.05000
        Density (kg/m3):  7850.00
        STEEL, Mass fraction:    1.00
     Total surface density   392.500 kg/m2
     Reaction products considered from the first  0.50 layers.
     Solid Phase Node, Layer, Coordinates(m):
                    0      1       0.0000000
                    1      1       0.0022727
                    2      1       0.0068182
                    3      1       0.0159091
                    4      1       0.0340909
                    5      1       0.0431818
                    6      1       0.0477273
                    7      1       0.0500000
     Exposed Backing

   4 BURNER1_PKW1
     HRR Per Unit Area (kW/m2)       1921.3
     REAC_FUEL Mass Flux (kg/s/m2)   7.44E-02

   5 BURNER2_VAN
     HRR Per Unit Area (kW/m2)       3846.2
     REAC_FUEL Mass Flux (kg/s/m2)   1.49E-01

   6 BURNER3_PKW2
     HRR Per Unit Area (kW/m2)       1921.3
     REAC_FUEL Mass Flux (kg/s/m2)   7.44E-02

   7 BURNER4_PKW3
     HRR Per Unit Area (kW/m2)       1921.3
     REAC_FUEL Mass Flux (kg/s/m2)   7.44E-02

   8 OPEN
     Passive Vent to Atmosphere

   9 MIRROR
     Symmetry Plane

  10 INTERPOLATED

  11 PERIODIC

  12 HVAC

  13 MASSLESS TRACER

  14 DROPLET

  15 EVACUATION_OUTFLOW
     Normal Velocity (m/s)         0.000

  16 MASSLESS TARGET

  17 PERIODIC FLOW ONLY


 Cut-off Density and Temperature

    Minimum Temperature:   -10.0 C
    Maximum Temperature:  2726.8 C
    Minimum Density:  1.195E-01 kg/m3
    Maximum Density:  2.663E+00 kg/m3


 Device Coordinates

     1 Coords:     38.100000     16.500000      1.500000, Make: null, ID: SZ2_SM_-3/0_2_110, Quantity: ADIABATIC SURFACE TEMPERATURE
     2 Coords:     38.300000     16.700000      1.500000, Make: null, ID: SZ2_SM_-3/0_3_110, Quantity: ADIABATIC SURFACE TEMPERATURE
     3 Coords:     37.900000     16.700000      1.500000, Make: null, ID: SZ2_SM_-3/0_4_110, Quantity: ADIABATIC SURFACE TEMPERATURE
     4 Coords:     38.100000     16.500000      1.700000, Make: null, ID: SZ2_SM_-3/0_2_130, Quantity: ADIABATIC SURFACE TEMPERATURE
     5 Coords:     38.300000     16.700000      1.700000, Make: null, ID: SZ2_SM_-3/0_3_130, Quantity: ADIABATIC SURFACE TEMPERATURE
     6 Coords:     37.900000     16.700000      1.700000, Make: null, ID: SZ2_SM_-3/0_4_130, Quantity: ADIABATIC SURFACE TEMPERATURE
     7 Coords:     38.100000     16.900000      1.900000, Make: null, ID: SZ2_SM_-3/0_1_150, Quantity: ADIABATIC SURFACE TEMPERATURE
     8 Coords:     38.100000     16.500000      1.900000, Make: null, ID: SZ2_SM_-3/0_2_150, Quantity: ADIABATIC SURFACE TEMPERATURE
     9 Coords:     38.300000     16.700000      1.900000, Make: null, ID: SZ2_SM_-3/0_3_150, Quantity: ADIABATIC SURFACE TEMPERATURE
    10 Coords:     37.900000     16.700000      1.900000, Make: null, ID: SZ2_SM_-3/0_4_150, Quantity: ADIABATIC SURFACE TEMPERATURE
    11 Coords:     38.100000     16.900000      2.700000, Make: null, ID: SZ2_SM_-3/0_1_230, Quantity: ADIABATIC SURFACE TEMPERATURE
    12 Coords:     38.300000     16.700000      2.700000, Make: null, ID: SZ2_SM_-3/0_3_230, Quantity: ADIABATIC SURFACE TEMPERATURE
    13 Coords:     37.900000     16.700000      2.700000, Make: null, ID: SZ2_SM_-3/0_4_230, Quantity: ADIABATIC SURFACE TEMPERATURE
    14 Coords:     38.100000     16.900000      3.300000, Make: null, ID: SZ2_SM_-3/0_1_290, Quantity: ADIABATIC SURFACE TEMPERATURE
    15 Coords:     38.100000     16.500000      3.300000, Make: null, ID: SZ2_SM_-3/0_2_290, Quantity: ADIABATIC SURFACE TEMPERATURE
    16 Coords:     38.100000     16.900000      3.500000, Make: null, ID: SZ2_SM_-3/0_1_310, Quantity: ADIABATIC SURFACE TEMPERATURE
    17 Coords:     38.100000     16.500000      3.500000, Make: null, ID: SZ2_SM_-3/0_2_310, Quantity: ADIABATIC SURFACE TEMPERATURE
    18 Coords:     38.100000     16.900000      3.700000, Make: null, ID: SZ2_SM_-3/0_1_330, Quantity: ADIABATIC SURFACE TEMPERATURE
    19 Coords:     38.100000     16.500000      3.700000, Make: null, ID: SZ2_SM_-3/0_2_330, Quantity: ADIABATIC SURFACE TEMPERATURE
    20 Coords:     38.100000     16.500000      4.300000, Make: null, ID: SZ2_SM_-3/0_2_390, Quantity: ADIABATIC SURFACE TEMPERATURE
    21 Coords:     40.700000     16.500000      1.500000, Make: null, ID: SZ2_SM_-2/0_2_110, Quantity: ADIABATIC SURFACE TEMPERATURE
    22 Coords:     40.900000     16.700000      1.500000, Make: null, ID: SZ2_SM_-2/0_3_110, Quantity: ADIABATIC SURFACE TEMPERATURE
    23 Coords:     40.500000     16.700000      1.500000, Make: null, ID: SZ2_SM_-2/0_4_110, Quantity: ADIABATIC SURFACE TEMPERATURE
    24 Coords:     40.700000     16.500000      1.700000, Make: null, ID: SZ2_SM_-2/0_2_130, Quantity: ADIABATIC SURFACE TEMPERATURE
    25 Coords:     40.900000     16.700000      1.700000, Make: null, ID: SZ2_SM_-2/0_3_130, Quantity: ADIABATIC SURFACE TEMPERATURE
    26 Coords:     40.500000     16.700000      1.700000, Make: null, ID: SZ2_SM_-2/0_4_130, Quantity: ADIABATIC SURFACE TEMPERATURE
    27 Coords:     40.700000     16.900000      1.900000, Make: null, ID: SZ2_SM_-2/0_1_150, Quantity: ADIABATIC SURFACE TEMPERATURE
    28 Coords:     40.700000     16.500000      1.900000, Make: null, ID: SZ2_SM_-2/0_2_150, Quantity: ADIABATIC SURFACE TEMPERATURE
    29 Coords:     40.900000     16.700000      1.900000, Make: null, ID: SZ2_SM_-2/0_3_150, Quantity: ADIABATIC SURFACE TEMPERATURE
    30 Coords:     40.500000     16.700000      1.900000, Make: null, ID: SZ2_SM_-2/0_4_150, Quantity: ADIABATIC SURFACE TEMPERATURE
    31 Coords:     40.700000     16.900000      2.700000, Make: null, ID: SZ2_SM_-2/0_1_230, Quantity: ADIABATIC SURFACE TEMPERATURE
    32 Coords:     40.900000     16.700000      2.700000, Make: null, ID: SZ2_SM_-2/0_3_230, Quantity: ADIABATIC SURFACE TEMPERATURE
    33 Coords:     40.500000     16.700000      2.700000, Make: null, ID: SZ2_SM_-2/0_4_230, Quantity: ADIABATIC SURFACE TEMPERATURE
    34 Coords:     40.700000     16.900000      3.300000, Make: null, ID: SZ2_SM_-2/0_1_290, Quantity: ADIABATIC SURFACE TEMPERATURE
    35 Coords:     40.700000     16.500000      3.300000, Make: null, ID: SZ2_SM_-2/0_2_290, Quantity: ADIABATIC SURFACE TEMPERATURE
    36 Coords:     40.700000     16.900000      3.500000, Make: null, ID: SZ2_SM_-2/0_1_310, Quantity: ADIABATIC SURFACE TEMPERATURE
    37 Coords:     40.700000     16.500000      3.500000, Make: null, ID: SZ2_SM_-2/0_2_310, Quantity: ADIABATIC SURFACE TEMPERATURE
    38 Coords:     40.700000     16.900000      3.700000, Make: null, ID: SZ2_SM_-2/0_1_330, Quantity: ADIABATIC SURFACE TEMPERATURE
    39 Coords:     40.700000     16.500000      3.700000, Make: null, ID: SZ2_SM_-2/0_2_330, Quantity: ADIABATIC SURFACE TEMPERATURE
    40 Coords:     40.700000     16.500000      4.300000, Make: null, ID: SZ2_SM_-2/0_2_390, Quantity: ADIABATIC SURFACE TEMPERATURE
    41 Coords:     43.100000     16.500000      1.500000, Make: null, ID: SZ2_SM_-1/0_2_110, Quantity: ADIABATIC SURFACE TEMPERATURE
    42 Coords:     42.900000     16.700000      1.500000, Make: null, ID: SZ2_SM_-1/0_4_110, Quantity: ADIABATIC SURFACE TEMPERATURE
    43 Coords:     43.300000     16.700000      1.500000, Make: null, ID: SZ2_SM_-1/0_3_110, Quantity: ADIABATIC SURFACE TEMPERATURE
    44 Coords:     43.100000     16.500000      1.700000, Make: null, ID: SZ2_SM_-1/0_2_130, Quantity: ADIABATIC SURFACE TEMPERATURE
    45 Coords:     43.300000     16.700000      1.700000, Make: null, ID: SZ2_SM_-1/0_3_130, Quantity: ADIABATIC SURFACE TEMPERATURE
    46 Coords:     42.900000     16.700000      1.700000, Make: null, ID: SZ2_SM_-1/0_4_130, Quantity: ADIABATIC SURFACE TEMPERATURE
    47 Coords:     43.100000     16.900000      1.900000, Make: null, ID: SZ2_SM_-1/0_1_150, Quantity: ADIABATIC SURFACE TEMPERATURE
    48 Coords:     43.100000     16.500000      1.900000, Make: null, ID: SZ2_SM_-1/0_2_150, Quantity: ADIABATIC SURFACE TEMPERATURE
    49 Coords:     43.300000     16.700000      1.900000, Make: null, ID: SZ2_SM_-1/0_3_150, Quantity: ADIABATIC SURFACE TEMPERATURE
    50 Coords:     42.900000     16.700000      1.900000, Make: null, ID: SZ2_SM_-1/0_4_150, Quantity: ADIABATIC SURFACE TEMPERATURE
    51 Coords:     43.100000     16.900000      2.700000, Make: null, ID: SZ2_SM_-1/0_1_230, Quantity: ADIABATIC SURFACE TEMPERATURE
    52 Coords:     43.300000     16.700000      2.700000, Make: null, ID: SZ2_SM_-1/0_3_230, Quantity: ADIABATIC SURFACE TEMPERATURE
    53 Coords:     42.900000     16.700000      2.700000, Make: null, ID: SZ2_SM_-1/0_4_230, Quantity: ADIABATIC SURFACE TEMPERATURE
    54 Coords:     43.100000     16.900000      3.300000, Make: null, ID: SZ2_SM_-1/0_1_290, Quantity: ADIABATIC SURFACE TEMPERATURE
    55 Coords:     43.100000     16.500000      3.300000, Make: null, ID: SZ2_SM_-1/0_2_290, Quantity: ADIABATIC SURFACE TEMPERATURE
    56 Coords:     43.100000     16.900000      3.500000, Make: null, ID: SZ2_SM_-1/0_1_310, Quantity: ADIABATIC SURFACE TEMPERATURE
    57 Coords:     43.100000     16.500000      3.500000, Make: null, ID: SZ2_SM_-1/0_2_310, Quantity: ADIABATIC SURFACE TEMPERATURE
    58 Coords:     43.100000     16.900000      3.700000, Make: null, ID: SZ2_SM_-1/0_1_330, Quantity: ADIABATIC SURFACE TEMPERATURE
    59 Coords:     43.100000     16.500000      3.700000, Make: null, ID: SZ2_SM_-1/0_2_330, Quantity: ADIABATIC SURFACE TEMPERATURE
    60 Coords:     43.100000     16.500000      4.300000, Make: null, ID: SZ2_SM_-1/0_2_390, Quantity: ADIABATIC SURFACE TEMPERATURE
    61 Coords:     45.700000     16.500000      1.500000, Make: null, ID: SZ2_SM_1/0_2_110, Quantity: ADIABATIC SURFACE TEMPERATURE
    62 Coords:     45.900000     16.700000      1.500000, Make: null, ID: SZ2_SM_1/0_3_110, Quantity: ADIABATIC SURFACE TEMPERATURE
    63 Coords:     45.500000     16.700000      1.500000, Make: null, ID: SZ2_SM_1/0_4_110, Quantity: ADIABATIC SURFACE TEMPERATURE
    64 Coords:     45.700000     16.500000      1.700000, Make: null, ID: SZ2_SM_1/0_2_130, Quantity: ADIABATIC SURFACE TEMPERATURE
    65 Coords:     45.900000     16.700000      1.700000, Make: null, ID: SZ2_SM_1/0_3_130, Quantity: ADIABATIC SURFACE TEMPERATURE
    66 Coords:     45.500000     16.700000      1.700000, Make: null, ID: SZ2_SM_1/0_4_130, Quantity: ADIABATIC SURFACE TEMPERATURE
    67 Coords:     45.700000     16.900000      1.900000, Make: null, ID: SZ2_SM_1/0_1_150, Quantity: ADIABATIC SURFACE TEMPERATURE
    68 Coords:     45.700000     16.500000      1.900000, Make: null, ID: SZ2_SM_1/0_2_150, Quantity: ADIABATIC SURFACE TEMPERATURE
    69 Coords:     45.900000     16.700000      1.900000, Make: null, ID: SZ2_SM_1/0_3_150, Quantity: ADIABATIC SURFACE TEMPERATURE
    70 Coords:     45.500000     16.700000      1.900000, Make: null, ID: SZ2_SM_1/0_4_150, Quantity: ADIABATIC SURFACE TEMPERATURE
    71 Coords:     45.700000     16.900000      2.700000, Make: null, ID: SZ2_SM_1/0_1_230, Quantity: ADIABATIC SURFACE TEMPERATURE
    72 Coords:     45.900000     16.700000      2.700000, Make: null, ID: SZ2_SM_1/0_3_230, Quantity: ADIABATIC SURFACE TEMPERATURE
    73 Coords:     45.500000     16.700000      2.700000, Make: null, ID: SZ2_SM_1/0_4_230, Quantity: ADIABATIC SURFACE TEMPERATURE
    74 Coords:     45.700000     16.900000      3.300000, Make: null, ID: SZ2_SM_1/0_1_290, Quantity: ADIABATIC SURFACE TEMPERATURE
    75 Coords:     45.700000     16.500000      3.300000, Make: null, ID: SZ2_SM_1/0_2_290, Quantity: ADIABATIC SURFACE TEMPERATURE
    76 Coords:     45.700000     16.900000      3.500000, Make: null, ID: SZ2_SM_1/0_1_310, Quantity: ADIABATIC SURFACE TEMPERATURE
    77 Coords:     45.700000     16.500000      3.500000, Make: null, ID: SZ2_SM_1/0_2_310, Quantity: ADIABATIC SURFACE TEMPERATURE
    78 Coords:     45.700000     16.900000      3.700000, Make: null, ID: SZ2_SM_1/0_1_330, Quantity: ADIABATIC SURFACE TEMPERATURE
    79 Coords:     45.700000     16.500000      3.700000, Make: null, ID: SZ2_SM_1/0_2_330, Quantity: ADIABATIC SURFACE TEMPERATURE
    80 Coords:     45.700000     16.500000      4.300000, Make: null, ID: SZ2_SM_1/0_2_390, Quantity: ADIABATIC SURFACE TEMPERATURE
    81 Coords:     48.100000     16.500000      1.500000, Make: null, ID: SZ2_SM_2/0_2_110, Quantity: ADIABATIC SURFACE TEMPERATURE
    82 Coords:     48.300000     16.700000      1.500000, Make: null, ID: SZ2_SM_2/0_3_110, Quantity: ADIABATIC SURFACE TEMPERATURE
    83 Coords:     47.900000     16.700000      1.500000, Make: null, ID: SZ2_SM_2/0_4_110, Quantity: ADIABATIC SURFACE TEMPERATURE
    84 Coords:     48.100000     16.500000      1.700000, Make: null, ID: SZ2_SM_2/0_2_130, Quantity: ADIABATIC SURFACE TEMPERATURE
    85 Coords:     48.300000     16.700000      1.700000, Make: null, ID: SZ2_SM_2/0_3_130, Quantity: ADIABATIC SURFACE TEMPERATURE
    86 Coords:     47.900000     16.700000      1.700000, Make: null, ID: SZ2_SM_2/0_4_130, Quantity: ADIABATIC SURFACE TEMPERATURE
    87 Coords:     48.100000     16.900000      1.900000, Make: null, ID: SZ2_SM_2/0_1_150, Quantity: ADIABATIC SURFACE TEMPERATURE
    88 Coords:     48.100000     16.500000      1.900000, Make: null, ID: SZ2_SM_2/0_2_150, Quantity: ADIABATIC SURFACE TEMPERATURE
    89 Coords:     48.300000     16.700000      1.900000, Make: null, ID: SZ2_SM_2/0_3_150, Quantity: ADIABATIC SURFACE TEMPERATURE
    90 Coords:     47.900000     16.700000      1.900000, Make: null, ID: SZ2_SM_2/0_4_150, Quantity: ADIABATIC SURFACE TEMPERATURE
    91 Coords:     48.100000     16.900000      2.700000, Make: null, ID: SZ2_SM_2/0_1_230, Quantity: ADIABATIC SURFACE TEMPERATURE
    92 Coords:     48.300000     16.700000      2.700000, Make: null, ID: SZ2_SM_2/0_3_230, Quantity: ADIABATIC SURFACE TEMPERATURE
    93 Coords:     47.900000     16.700000      2.700000, Make: null, ID: SZ2_SM_2/0_4_230, Quantity: ADIABATIC SURFACE TEMPERATURE
    94 Coords:     48.100000     16.900000      3.300000, Make: null, ID: SZ2_SM_2/0_1_290, Quantity: ADIABATIC SURFACE TEMPERATURE
    95 Coords:     48.100000     16.500000      3.300000, Make: null, ID: SZ2_SM_2/0_2_290, Quantity: ADIABATIC SURFACE TEMPERATURE
    96 Coords:     48.100000     16.900000      3.500000, Make: null, ID: SZ2_SM_2/0_1_310, Quantity: ADIABATIC SURFACE TEMPERATURE
    97 Coords:     48.100000     16.500000      3.500000, Make: null, ID: SZ2_SM_2/0_2_310, Quantity: ADIABATIC SURFACE TEMPERATURE
    98 Coords:     48.100000     16.900000      3.700000, Make: null, ID: SZ2_SM_2/0_1_330, Quantity: ADIABATIC SURFACE TEMPERATURE
    99 Coords:     48.100000     16.500000      3.700000, Make: null, ID: SZ2_SM_2/0_2_330, Quantity: ADIABATIC SURFACE TEMPERATURE
   100 Coords:     48.100000     16.500000      4.300000, Make: null, ID: SZ2_SM_2/0_2_390, Quantity: ADIABATIC SURFACE TEMPERATURE
   101 Coords:     50.700000     16.500000      1.500000, Make: null, ID: SZ2_SM_3/0_2_110, Quantity: ADIABATIC SURFACE TEMPERATURE
   102 Coords:     50.900000     16.700000      1.500000, Make: null, ID: SZ2_SM_3/0_3_110, Quantity: ADIABATIC SURFACE TEMPERATURE
   103 Coords:     50.500000     16.700000      1.500000, Make: null, ID: SZ2_SM_3/0_4_110, Quantity: ADIABATIC SURFACE TEMPERATURE
   104 Coords:     50.700000     16.500000      1.700000, Make: null, ID: SZ2_SM_3/0_2_130, Quantity: ADIABATIC SURFACE TEMPERATURE
   105 Coords:     50.900000     16.700000      1.700000, Make: null, ID: SZ2_SM_3/0_3_130, Quantity: ADIABATIC SURFACE TEMPERATURE
   106 Coords:     50.500000     16.700000      1.700000, Make: null, ID: SZ2_SM_3/0_4_130, Quantity: ADIABATIC SURFACE TEMPERATURE
   107 Coords:     50.700000     16.900000      1.900000, Make: null, ID: SZ2_SM_3/0_1_150, Quantity: ADIABATIC SURFACE TEMPERATURE
   108 Coords:     50.700000     16.500000      1.900000, Make: null, ID: SZ2_SM_3/0_2_150, Quantity: ADIABATIC SURFACE TEMPERATURE
   109 Coords:     50.900000     16.700000      1.900000, Make: null, ID: SZ2_SM_3/0_3_150, Quantity: ADIABATIC SURFACE TEMPERATURE
   110 Coords:     50.500000     16.700000      1.900000, Make: null, ID: SZ2_SM_3/0_4_150, Quantity: ADIABATIC SURFACE TEMPERATURE
   111 Coords:     50.700000     16.900000      2.700000, Make: null, ID: SZ2_SM_3/0_1_230, Quantity: ADIABATIC SURFACE TEMPERATURE
   112 Coords:     50.900000     16.700000      2.700000, Make: null, ID: SZ2_SM_3/0_3_230, Quantity: ADIABATIC SURFACE TEMPERATURE
   113 Coords:     50.500000     16.700000      2.700000, Make: null, ID: SZ2_SM_3/0_4_230, Quantity: ADIABATIC SURFACE TEMPERATURE
   114 Coords:     50.700000     16.900000      3.300000, Make: null, ID: SZ2_SM_3/0_1_290, Quantity: ADIABATIC SURFACE TEMPERATURE
   115 Coords:     50.700000     16.500000      3.300000, Make: null, ID: SZ2_SM_3/0_2_290, Quantity: ADIABATIC SURFACE TEMPERATURE
   116 Coords:     50.700000     16.900000      3.500000, Make: null, ID: SZ2_SM_3/0_1_310, Quantity: ADIABATIC SURFACE TEMPERATURE
   117 Coords:     50.700000     16.500000      3.500000, Make: null, ID: SZ2_SM_3/0_2_310, Quantity: ADIABATIC SURFACE TEMPERATURE
   118 Coords:     50.700000     16.900000      3.700000, Make: null, ID: SZ2_SM_3/0_1_330, Quantity: ADIABATIC SURFACE TEMPERATURE
   119 Coords:     50.700000     16.500000      3.700000, Make: null, ID: SZ2_SM_3/0_2_330, Quantity: ADIABATIC SURFACE TEMPERATURE
   120 Coords:     50.700000     16.500000      4.300000, Make: null, ID: SZ2_SM_3/0_2_390, Quantity: ADIABATIC SURFACE TEMPERATURE
   121 Coords:     38.100000     17.900000      3.900000, Make: null, ID: SZ2_DT_-3/1.20_01, Quantity: ADIABATIC SURFACE TEMPERATURE
   122 Coords:     38.100000     18.300000      3.900000, Make: null, ID: SZ2_DT_-3/1.60_01, Quantity: ADIABATIC SURFACE TEMPERATURE
   123 Coords:     38.100000     18.700000      3.900000, Make: null, ID: SZ2_DT_-3/2.00_01, Quantity: ADIABATIC SURFACE TEMPERATURE
   124 Coords:     38.100000     19.100000      3.900000, Make: null, ID: SZ2_DT_-3/2.40_01, Quantity: ADIABATIC SURFACE TEMPERATURE
   125 Coords:     38.100000     19.500000      3.900000, Make: null, ID: SZ2_DT_-3/2.80_01, Quantity: ADIABATIC SURFACE TEMPERATURE
   126 Coords:     38.100000     19.900000      3.900000, Make: null, ID: SZ2_DT_-3/3.20_01, Quantity: ADIABATIC SURFACE TEMPERATURE
   127 Coords:     38.100000     20.300000      3.900000, Make: null, ID: SZ2_DT_-3/3.60_01, Quantity: ADIABATIC SURFACE TEMPERATURE
   128 Coords:     38.100000     20.700000      3.900000, Make: null, ID: SZ2_DT_-3/4.00_01, Quantity: ADIABATIC SURFACE TEMPERATURE
   129 Coords:     38.100000     21.700000      3.900000, Make: null, ID: SZ2_DT_-3/5.00_01, Quantity: ADIABATIC SURFACE TEMPERATURE
   130 Coords:     38.100000     24.900000      3.900000, Make: null, ID: SZ2_DT_-3/8.20_01, Quantity: ADIABATIC SURFACE TEMPERATURE
   131 Coords:     38.100000     15.500000      2.500000, Make: null, ID: SZ2_DT_-3/-1.20_01, Quantity: ADIABATIC SURFACE TEMPERATURE
   132 Coords:     38.100000     15.100000      2.500000, Make: null, ID: SZ2_DT_-3/-1.60_01, Quantity: ADIABATIC SURFACE TEMPERATURE
   133 Coords:     38.100000     14.700000      2.500000, Make: null, ID: SZ2_DT_-3/-2.00_01, Quantity: ADIABATIC SURFACE TEMPERATURE
   134 Coords:     38.100000     14.300000      2.500000, Make: null, ID: SZ2_DT_-3/-2.40_01, Quantity: ADIABATIC SURFACE TEMPERATURE
   135 Coords:     38.100000     13.900000      2.500000, Make: null, ID: SZ2_DT_-3/-2.80_01, Quantity: ADIABATIC SURFACE TEMPERATURE
   136 Coords:     38.100000     13.500000      2.500000, Make: null, ID: SZ2_DT_-3/-3.20_01, Quantity: ADIABATIC SURFACE TEMPERATURE
   137 Coords:     38.100000     13.100000      2.500000, Make: null, ID: SZ2_DT_-3/-3.60_01, Quantity: ADIABATIC SURFACE TEMPERATURE
   138 Coords:     38.100000     12.700000      2.500000, Make: null, ID: SZ2_DT_-3/-4.00_01, Quantity: ADIABATIC SURFACE TEMPERATURE
   139 Coords:     38.100000     11.700000      2.500000, Make: null, ID: SZ2_DT_-3/-5.00_01, Quantity: ADIABATIC SURFACE TEMPERATURE
   140 Coords:     38.100000      8.500000      2.500000, Make: null, ID: SZ2_DT_-3/-8.20_01, Quantity: ADIABATIC SURFACE TEMPERATURE
   141 Coords:     40.700000     17.900000      3.900000, Make: null, ID: SZ2_DT_-2/1.20_1, Quantity: ADIABATIC SURFACE TEMPERATURE
   142 Coords:     40.700000     18.300000      3.900000, Make: null, ID: SZ2_DT_-2/1.60_1, Quantity: ADIABATIC SURFACE TEMPERATURE
   143 Coords:     40.700000     18.700000      3.900000, Make: null, ID: SZ2_DT_-2/2.00_1, Quantity: ADIABATIC SURFACE TEMPERATURE
   144 Coords:     40.700000     19.100000      3.900000, Make: null, ID: SZ2_DT_-2/2.40_1, Quantity: ADIABATIC SURFACE TEMPERATURE
   145 Coords:     40.700000     19.500000      3.900000, Make: null, ID: SZ2_DT_-2/2.80_1, Quantity: ADIABATIC SURFACE TEMPERATURE
   146 Coords:     40.700000     19.900000      3.900000, Make: null, ID: SZ2_DT_-2/3.20_1, Quantity: ADIABATIC SURFACE TEMPERATURE
   147 Coords:     40.700000     20.300000      3.900000, Make: null, ID: SZ2_DT_-2/3.60_1, Quantity: ADIABATIC SURFACE TEMPERATURE
   148 Coords:     40.700000     20.700000      3.900000, Make: null, ID: SZ2_DT_-2/4.00_1, Quantity: ADIABATIC SURFACE TEMPERATURE
   149 Coords:     40.700000     21.700000      3.900000, Make: null, ID: SZ2_DT_-2/5.00_1, Quantity: ADIABATIC SURFACE TEMPERATURE
   150 Coords:     40.700000     24.900000      3.900000, Make: null, ID: SZ2_DT_-2/8.20_1, Quantity: ADIABATIC SURFACE TEMPERATURE
   151 Coords:     40.700000     15.500000      2.500000, Make: null, ID: SZ2_DT_-2/-1.20_1, Quantity: ADIABATIC SURFACE TEMPERATURE
   152 Coords:     40.700000     15.100000      2.500000, Make: null, ID: SZ2_DT_-2/-1.60_1, Quantity: ADIABATIC SURFACE TEMPERATURE
   153 Coords:     40.700000     14.700000      2.500000, Make: null, ID: SZ2_DT_-2/-2.00_1, Quantity: ADIABATIC SURFACE TEMPERATURE
   154 Coords:     40.700000     14.300000      2.500000, Make: null, ID: SZ2_DT_-2/-2.40_1, Quantity: ADIABATIC SURFACE TEMPERATURE
   155 Coords:     40.700000     13.900000      2.500000, Make: null, ID: SZ2_DT_-2/-2.80_1, Quantity: ADIABATIC SURFACE TEMPERATURE
   156 Coords:     40.700000     13.500000      2.500000, Make: null, ID: SZ2_DT_-2/-3.20_1, Quantity: ADIABATIC SURFACE TEMPERATURE
   157 Coords:     40.700000     13.100000      2.500000, Make: null, ID: SZ2_DT_-2/-3.60_1, Quantity: ADIABATIC SURFACE TEMPERATURE
   158 Coords:     40.700000     12.700000      2.500000, Make: null, ID: SZ2_DT_-2/-4.00_1, Quantity: ADIABATIC SURFACE TEMPERATURE
   159 Coords:     40.700000     11.700000      2.500000, Make: null, ID: SZ2_DT_-2/-5.00_1, Quantity: ADIABATIC SURFACE TEMPERATURE
   160 Coords:     40.700000      8.500000      2.500000, Make: null, ID: SZ2_DT_-2/-8.20_1, Quantity: ADIABATIC SURFACE TEMPERATURE
   161 Coords:     43.100000     17.900000      3.900000, Make: null, ID: SZ2_DT_-1/1.20_1, Quantity: ADIABATIC SURFACE TEMPERATURE
   162 Coords:     43.100000     18.300000      3.900000, Make: null, ID: SZ2_DT_-1/1.60_1, Quantity: ADIABATIC SURFACE TEMPERATURE
   163 Coords:     43.100000     18.700000      3.900000, Make: null, ID: SZ2_DT_-1/2.00_1, Quantity: ADIABATIC SURFACE TEMPERATURE
   164 Coords:     43.100000     19.500000      3.900000, Make: null, ID: SZ2_DT_-1/2.80_1, Quantity: ADIABATIC SURFACE TEMPERATURE
   165 Coords:     43.100000     19.900000      3.900000, Make: null, ID: SZ2_DT_-1/3.20_1, Quantity: ADIABATIC SURFACE TEMPERATURE
   166 Coords:     43.100000     19.100000      3.900000, Make: null, ID: SZ2_DT_-1/2.40_1, Quantity: ADIABATIC SURFACE TEMPERATURE
   167 Coords:     43.100000     20.300000      3.900000, Make: null, ID: SZ2_DT_-1/3.60_1, Quantity: ADIABATIC SURFACE TEMPERATURE
   168 Coords:     43.100000     20.700000      3.900000, Make: null, ID: SZ2_DT_-1/4.00_1, Quantity: ADIABATIC SURFACE TEMPERATURE
   169 Coords:     43.100000     21.700000      3.900000, Make: null, ID: SZ2_DT_-1/5.00_1, Quantity: ADIABATIC SURFACE TEMPERATURE
   170 Coords:     43.100000     24.900000      3.900000, Make: null, ID: SZ2_DT_-1/8.20_1, Quantity: ADIABATIC SURFACE TEMPERATURE
   171 Coords:     43.100000     15.500000      2.500000, Make: null, ID: SZ2_DT_-1/-1.20_1, Quantity: ADIABATIC SURFACE TEMPERATURE
   172 Coords:     43.100000     15.100000      2.500000, Make: null, ID: SZ2_DT_-1/-1.60_1, Quantity: ADIABATIC SURFACE TEMPERATURE
   173 Coords:     43.100000     14.700000      2.500000, Make: null, ID: SZ2_DT_-1/-2.00_1, Quantity: ADIABATIC SURFACE TEMPERATURE
   174 Coords:     43.100000     14.300000      2.500000, Make: null, ID: SZ2_DT_-1/-2.40_1, Quantity: ADIABATIC SURFACE TEMPERATURE
   175 Coords:     43.100000     13.900000      2.500000, Make: null, ID: SZ2_DT_-1/-2.80_1, Quantity: ADIABATIC SURFACE TEMPERATURE
   176 Coords:     43.100000     13.500000      2.500000, Make: null, ID: SZ2_DT_-1/-3.20_1, Quantity: ADIABATIC SURFACE TEMPERATURE
   177 Coords:     43.100000     13.100000      2.500000, Make: null, ID: SZ2_DT_-1/-3.60_1, Quantity: ADIABATIC SURFACE TEMPERATURE
   178 Coords:     43.100000     12.700000      2.500000, Make: null, ID: SZ2_DT_-1/-4.00_1, Quantity: ADIABATIC SURFACE TEMPERATURE
   179 Coords:     43.100000     11.700000      2.500000, Make: null, ID: SZ2_DT_-1/-5.00_1, Quantity: ADIABATIC SURFACE TEMPERATURE
   180 Coords:     43.100000      8.500000      2.500000, Make: null, ID: SZ2_DT_-1/-8.20_1, Quantity: ADIABATIC SURFACE TEMPERATURE
   181 Coords:     45.700000     17.900000      3.900000, Make: null, ID: SZ2_DT_1/1.20_1, Quantity: ADIABATIC SURFACE TEMPERATURE
   182 Coords:     45.700000     18.300000      3.900000, Make: null, ID: SZ2_DT_1/1.60_1, Quantity: ADIABATIC SURFACE TEMPERATURE
   183 Coords:     45.700000     18.700000      3.900000, Make: null, ID: SZ2_DT_1/2.00_1, Quantity: ADIABATIC SURFACE TEMPERATURE
   184 Coords:     45.700000     19.100000      3.900000, Make: null, ID: SZ2_DT_1/2.40_1, Quantity: ADIABATIC SURFACE TEMPERATURE
   185 Coords:     45.700000     19.500000      3.900000, Make: null, ID: SZ2_DT_1/2.80_1, Quantity: ADIABATIC SURFACE TEMPERATURE
   186 Coords:     45.700000     19.900000      3.900000, Make: null, ID: SZ2_DT_1/3.20_1, Quantity: ADIABATIC SURFACE TEMPERATURE
   187 Coords:     45.700000     20.300000      3.900000, Make: null, ID: SZ2_DT_1/3.60_1, Quantity: ADIABATIC SURFACE TEMPERATURE
   188 Coords:     45.700000     20.700000      3.900000, Make: null, ID: SZ2_DT_1/4.00_1, Quantity: ADIABATIC SURFACE TEMPERATURE
   189 Coords:     45.700000     21.700000      3.900000, Make: null, ID: SZ2_DT_1/5.00_1, Quantity: ADIABATIC SURFACE TEMPERATURE
   190 Coords:     45.700000     24.900000      3.900000, Make: null, ID: SZ2_DT_1/8.20_1, Quantity: ADIABATIC SURFACE TEMPERATURE
   191 Coords:     45.700000     15.500000      2.500000, Make: null, ID: SZ2_DT_1/-1.20_1, Quantity: ADIABATIC SURFACE TEMPERATURE
   192 Coords:     45.700000     15.100000      2.500000, Make: null, ID: SZ2_DT_1/-1.60_1, Quantity: ADIABATIC SURFACE TEMPERATURE
   193 Coords:     45.700000     14.700000      2.500000, Make: null, ID: SZ2_DT_1/-2.00_1, Quantity: ADIABATIC SURFACE TEMPERATURE
   194 Coords:     45.700000     14.300000      2.500000, Make: null, ID: SZ2_DT_1/-2.40_1, Quantity: ADIABATIC SURFACE TEMPERATURE
   195 Coords:     45.700000     13.900000      2.500000, Make: null, ID: SZ2_DT_1/-2.80_1, Quantity: ADIABATIC SURFACE TEMPERATURE
   196 Coords:     45.700000     13.500000      2.500000, Make: null, ID: SZ2_DT_1/-3.20_1, Quantity: ADIABATIC SURFACE TEMPERATURE
   197 Coords:     45.700000     13.100000      2.500000, Make: null, ID: SZ2_DT_1/-3.60_1, Quantity: ADIABATIC SURFACE TEMPERATURE
   198 Coords:     45.700000     12.700000      2.500000, Make: null, ID: SZ2_DT_1/-4.00_2, Quantity: ADIABATIC SURFACE TEMPERATURE
   199 Coords:     45.700000     11.700000      2.500000, Make: null, ID: SZ2_DT_1/-5.00_1, Quantity: ADIABATIC SURFACE TEMPERATURE
   200 Coords:     45.700000      8.500000      2.500000, Make: null, ID: SZ2_DT_1/-8.20_1, Quantity: ADIABATIC SURFACE TEMPERATURE
   201 Coords:     48.100000     17.900000      3.900000, Make: null, ID: SZ2_DT_2/1.20_1, Quantity: ADIABATIC SURFACE TEMPERATURE
   202 Coords:     48.100000     18.300000      3.900000, Make: null, ID: SZ2_DT_2/1.60_1, Quantity: ADIABATIC SURFACE TEMPERATURE
   203 Coords:     48.100000     18.700000      3.900000, Make: null, ID: SZ2_DT_2/2.00_1, Quantity: ADIABATIC SURFACE TEMPERATURE
   204 Coords:     48.100000     19.100000      3.900000, Make: null, ID: SZ2_DT_2/2.40_1, Quantity: ADIABATIC SURFACE TEMPERATURE
   205 Coords:     48.100000     19.500000      3.900000, Make: null, ID: SZ2_DT_2/2.80_1, Quantity: ADIABATIC SURFACE TEMPERATURE
   206 Coords:     48.100000     19.900000      3.900000, Make: null, ID: SZ2_DT_2/3.20_1, Quantity: ADIABATIC SURFACE TEMPERATURE
   207 Coords:     48.100000     20.300000      3.900000, Make: null, ID: SZ2_DT_2/3.60_1, Quantity: ADIABATIC SURFACE TEMPERATURE
   208 Coords:     48.100000     20.700000      3.900000, Make: null, ID: SZ2_DT_2/4.00_1, Quantity: ADIABATIC SURFACE TEMPERATURE
   209 Coords:     48.100000     21.700000      3.900000, Make: null, ID: SZ2_DT_2/5.00_1, Quantity: ADIABATIC SURFACE TEMPERATURE
   210 Coords:     48.100000     24.900000      3.900000, Make: null, ID: SZ2_DT_2/8.20_1, Quantity: ADIABATIC SURFACE TEMPERATURE
   211 Coords:     48.100000     15.500000      2.500000, Make: null, ID: SZ2_DT_2/-1.20_1, Quantity: ADIABATIC SURFACE TEMPERATURE
   212 Coords:     48.100000     15.100000      2.500000, Make: null, ID: SZ2_DT_2/-1.60_1, Quantity: ADIABATIC SURFACE TEMPERATURE
   213 Coords:     48.100000     14.700000      2.500000, Make: null, ID: SZ2_DT_2/-2.00_1, Quantity: ADIABATIC SURFACE TEMPERATURE
   214 Coords:     48.100000     14.300000      2.500000, Make: null, ID: SZ2_DT_2/-2.40_1, Quantity: ADIABATIC SURFACE TEMPERATURE
   215 Coords:     48.100000     13.900000      2.500000, Make: null, ID: SZ2_DT_2/-2.80_1, Quantity: ADIABATIC SURFACE TEMPERATURE
   216 Coords:     48.100000     13.500000      2.500000, Make: null, ID: SZ2_DT_2/-3.20_1, Quantity: ADIABATIC SURFACE TEMPERATURE
   217 Coords:     48.100000     13.100000      2.500000, Make: null, ID: SZ2_DT_2/-3.60_1, Quantity: ADIABATIC SURFACE TEMPERATURE
   218 Coords:     48.100000     12.700000      2.500000, Make: null, ID: SZ2_DT_2/-4.00_2, Quantity: ADIABATIC SURFACE TEMPERATURE
   219 Coords:     48.100000     11.700000      2.500000, Make: null, ID: SZ2_DT_2/-5.00_1, Quantity: ADIABATIC SURFACE TEMPERATURE
   220 Coords:     48.100000      8.500000      2.500000, Make: null, ID: SZ2_DT_2/-8.20_1, Quantity: ADIABATIC SURFACE TEMPERATURE
   221 Coords:     50.700000     17.900000      3.900000, Make: null, ID: SZ2_DT_3/1.20_1, Quantity: ADIABATIC SURFACE TEMPERATURE
   222 Coords:     50.700000     18.300000      3.900000, Make: null, ID: SZ2_DT_3/1.60_1, Quantity: ADIABATIC SURFACE TEMPERATURE
   223 Coords:     50.700000     18.700000      3.900000, Make: null, ID: SZ2_DT_3/2.00_1, Quantity: ADIABATIC SURFACE TEMPERATURE
   224 Coords:     50.700000     19.100000      3.900000, Make: null, ID: SZ2_DT_3/2.40_1, Quantity: ADIABATIC SURFACE TEMPERATURE
   225 Coords:     50.700000     19.500000      3.900000, Make: null, ID: SZ2_DT_3/2.80_1, Quantity: ADIABATIC SURFACE TEMPERATURE
   226 Coords:     50.700000     19.900000      3.900000, Make: null, ID: SZ2_DT_3/3.20_1, Quantity: ADIABATIC SURFACE TEMPERATURE
   227 Coords:     50.700000     20.300000      3.900000, Make: null, ID: SZ2_DT_3/3.60_1, Quantity: ADIABATIC SURFACE TEMPERATURE
   228 Coords:     50.700000     20.700000      3.900000, Make: null, ID: SZ2_DT_3/4.00_1, Quantity: ADIABATIC SURFACE TEMPERATURE
   229 Coords:     50.700000     21.700000      3.900000, Make: null, ID: SZ2_DT_3/5.00_1, Quantity: ADIABATIC SURFACE TEMPERATURE
   230 Coords:     50.700000     24.900000      3.900000, Make: null, ID: SZ2_DT_3/8.20_1, Quantity: ADIABATIC SURFACE TEMPERATURE
   231 Coords:     50.700000     15.500000      2.500000, Make: null, ID: SZ2_DT_3/-1.20_1, Quantity: ADIABATIC SURFACE TEMPERATURE
   232 Coords:     50.700000     15.100000      2.500000, Make: null, ID: SZ2_DT_3/-1.60_1, Quantity: ADIABATIC SURFACE TEMPERATURE
   233 Coords:     50.700000     14.700000      2.500000, Make: null, ID: SZ2_DT_3/-2.00_1, Quantity: ADIABATIC SURFACE TEMPERATURE
   234 Coords:     50.700000     14.300000      2.500000, Make: null, ID: SZ2_DT_3/-2.40_1, Quantity: ADIABATIC SURFACE TEMPERATURE
   235 Coords:     50.700000     13.900000      2.500000, Make: null, ID: SZ2_DT_3/-2.80_1, Quantity: ADIABATIC SURFACE TEMPERATURE
   236 Coords:     50.700000     13.500000      2.500000, Make: null, ID: SZ2_DT_3/-3.20_1, Quantity: ADIABATIC SURFACE TEMPERATURE
   237 Coords:     50.700000     11.700000      2.500000, Make: null, ID: SZ2_DT_3/-5.00_1, Quantity: ADIABATIC SURFACE TEMPERATURE
   238 Coords:     50.700000      8.500000      2.500000, Make: null, ID: SZ2_DT_3/-8.20_1, Quantity: ADIABATIC SURFACE TEMPERATURE
   239 Coords:     50.700000     13.100000      2.500000, Make: null, ID: SZ2_DT_3/-3.60_1, Quantity: ADIABATIC SURFACE TEMPERATURE
   240 Coords:     50.700000     12.700000      2.500000, Make: null, ID: SZ2_DT_3/-4.00_1, Quantity: ADIABATIC SURFACE TEMPERATURE
   241 Coords:     41.900000     13.700000      1.700000, Make: null, ID: VAN_130, Quantity: TEMPERATURE
   242 Coords:     41.900000     13.700000      2.100000, Make: null, ID: VAN_170, Quantity: TEMPERATURE
   243 Coords:     41.900000     13.700000      2.500000, Make: null, ID: VAN_210, Quantity: TEMPERATURE
   244 Coords:     44.500000     13.700000      1.700000, Make: null, ID: PKW1_130, Quantity: TEMPERATURE
   245 Coords:     44.500000     13.700000      1.900000, Make: null, ID: PKW1_150, Quantity: TEMPERATURE
   246 Coords:     44.500000     13.700000      2.500000, Make: null, ID: PKW1_210, Quantity: TEMPERATURE
   247 Coords:     41.900000     19.700000      3.100000, Make: null, ID: PKW3_130, Quantity: TEMPERATURE
   248 Coords:     41.900000     19.700000      3.300000, Make: null, ID: PKW3_150, Quantity: TEMPERATURE
   249 Coords:     41.900000     19.700000      3.900000, Make: null, ID: PKW3_210, Quantity: TEMPERATURE
   250 Coords:     44.500000     19.700000      3.100000, Make: null, ID: PKW2_130, Quantity: TEMPERATURE
   251 Coords:     44.500000     19.700000      3.300000, Make: null, ID: PKW2_150, Quantity: TEMPERATURE
   252 Coords:     44.500000     19.700000      3.900000, Make: null, ID: PKW2_210, Quantity: TEMPERATURE


 PLOT3D Information

   Sampling Interval (s)              30.0

   1 Quantity: TEMPERATURE
   2 Quantity: U-VELOCITY
   3 Quantity: V-VELOCITY
   4 Quantity: W-VELOCITY
   5 Quantity: VISIBILITY, Species: SOOT


 Slice File Information, Mesh     1

   Sampling Interval (s)             1.000

   1 Nodes:   0 164   0  60  12  12, Quantity: TEMPERATURE
   2 Nodes:   0 164   0  60  20  20, Quantity: TEMPERATURE


 Radiation Model Information

   Number of control angles  104
   Time step increment         3
   Angle increment             5
   Theta band N_phi   Solid angle
     1:        4     0.120
     2:       12     0.114
     3:       16     0.127
     4:       20     0.120
     5:       20     0.120
     6:       16     0.127
     7:       12     0.114
     8:        4     0.120
   Using gray gas absorption.
   Mean beam length  0.100 m
 
 

 Run Time Diagnostics

       Time Step       1   October 12, 2020  13:40:29
       Step Size:    0.112E+00 s, Total Time:       0.11 s
       Pressure Iterations:      1
       Maximum Velocity Error:  0.56E-02 on Mesh   2 at ( 143   0  17)
       Maximum Pressure Error:  0.20E-05 on Mesh   1 at ( 163   7  40)
       ---------------------------------------------------------------
       Mesh    1
       Max CFL number:  0.12E-01 at (  80,  50,  34)
       Max divergence:  0.26E-02 at (   8,  19,  34)
       Min divergence: -0.25E-03 at ( 121,  18,  36)
       Max VN number:   0.84E-02 at (  10,  51,  32)
       Radiation Loss to Boundaries:        49.101 kW
       Mesh    2
       Max CFL number:  0.11E-01 at (  56,  19,  30)
       Max divergence:  0.46E-02 at (   8,   7,  25)
       Min divergence: -0.14E-02 at (  73,  31,  24)
       Max VN number:   0.84E-02 at ( 109,  48,   2)
       Radiation Loss to Boundaries:        46.987 kW
       Mesh    3
       Max CFL number:  0.11E-01 at (  20,  23,  19)
       Max divergence:  0.26E-02 at (   8,  42,  27)
       Min divergence: -0.25E-03 at (  71,  54,  29)
       Max VN number:   0.85E-02 at ( 118,   2,  34)
       Radiation Loss to Boundaries:        56.221 kW
       Mesh    4
       Max CFL number:  0.11E-01 at (  26,  27,  20)
       Max divergence:  0.26E-02 at ( 160,  19,  34)
       Min divergence: -0.25E-03 at (   9,   1,  34)
       Max VN number:   0.81E-02 at ( 152,  45,  28)
       Radiation Loss to Boundaries:        52.440 kW
       Mesh    5
       Max CFL number:  0.11E-01 at (  40,  26,  29)
       Max divergence:  0.22E-02 at (   9,  29,  13)
       Min divergence: -0.15E-02 at (  71,  31,  24)
       Max VN number:   0.87E-02 at (  68,  18,  33)
       Radiation Loss to Boundaries:        20.555 kW
       Mesh    6
       Max CFL number:  0.11E-01 at (  20,  46,  35)
       Max divergence:  0.27E-02 at (  82,   8,  40)
       Min divergence: -0.14E-02 at (   5,  31,  24)
       Max VN number:   0.87E-02 at (  34,  54,  27)
       Radiation Loss to Boundaries:        16.300 kW
       Mesh    7
       Max CFL number:  0.11E-01 at (  64,  37,  23)
       Max divergence:  0.22E-02 at ( 146,  10,  39)
       Min divergence: -0.25E-03 at (   9,  60,  13)
       Max VN number:   0.85E-02 at (  84,  37,   7)
       Radiation Loss to Boundaries:        55.643 kW
 
       Time Step       2   October 12, 2020  13:40:31
       Step Size:    0.112E+00 s, Total Time:       0.22 s
       Pressure Iterations:      1
       Maximum Velocity Error:  0.26E-02 on Mesh   2 at (  89   0  17)
       Maximum Pressure Error:  0.13E-03 on Mesh   2 at ( 110  31  27)
       ---------------------------------------------------------------
       Mesh    1
       Max CFL number:  0.12E-01 at (  80,  50,  34)
       Max divergence:  0.26E-02 at (   8,  19,  34)
       Min divergence: -0.25E-03 at ( 121,  18,  36)
       Max VN number:   0.84E-02 at ( 157,  12,  21)
       Radiation Loss to Boundaries:        49.090 kW
       Mesh    2
       Max CFL number:  0.12E-01 at ( 108,  34,  38)
       Max divergence:  0.68E-02 at (  71,  32,  22)
       Min divergence: -0.11E-02 at (  59,  31,  24)
       Max VN number:   0.83E-02 at ( 109,  48,   2)
       Radiation Loss to Boundaries:        46.976 kW
       Mesh    3
       Max CFL number:  0.11E-01 at (  63,  53,   4)
       Max divergence:  0.26E-02 at (   8,  42,  27)
       Min divergence: -0.25E-03 at (  71,  54,  29)
       Max VN number:   0.85E-02 at ( 118,   2,  34)
       Radiation Loss to Boundaries:        56.208 kW
       Mesh    4
       Max CFL number:  0.11E-01 at (  26,  27,  20)
       Max divergence:  0.26E-02 at ( 160,  19,  34)
       Min divergence: -0.25E-03 at (   9,   1,  34)
       Max VN number:   0.80E-02 at ( 152,  45,  28)
       Radiation Loss to Boundaries:        52.428 kW
       Mesh    5
       Max CFL number:  0.11E-01 at (  40,  26,  28)
       Max divergence:  0.61E-02 at (  46,  32,  22)
       Min divergence: -0.96E-03 at (  46,  31,  24)
       Max VN number:   0.86E-02 at (  68,  18,  33)
       Radiation Loss to Boundaries:        20.550 kW
       Mesh    6
       Max CFL number:  0.11E-01 at (  20,  46,  35)
       Max divergence:  0.60E-02 at (  20,  32,  21)
       Min divergence: -0.14E-02 at (   5,  32,  21)
       Max VN number:   0.87E-02 at (  34,  54,  27)
       Radiation Loss to Boundaries:        16.296 kW
       Mesh    7
       Max CFL number:  0.11E-01 at (  46,  18,  14)
       Max divergence:  0.22E-02 at ( 160,  20,  39)
       Min divergence: -0.25E-03 at (   9,  60,  13)
       Max VN number:   0.85E-02 at (  84,  37,   7)
       Radiation Loss to Boundaries:        55.631 kW
 
       Time Step       3   October 12, 2020  13:40:33
       Step Size:    0.112E+00 s, Total Time:       0.34 s
       Pressure Iterations:      1
       Maximum Velocity Error:  0.29E-02 on Mesh   1 at (  39   0  24)
       Maximum Pressure Error:  0.21E-03 on Mesh   5 at (  58  32  22)
       ---------------------------------------------------------------
       Mesh    1
       Max CFL number:  0.12E-01 at (  80,  50,  34)
       Max divergence:  0.26E-02 at (   8,  19,  34)
       Min divergence: -0.25E-03 at ( 148,   4,  36)
       Max VN number:   0.84E-02 at ( 157,  12,  21)
       Radiation Loss to Boundaries:        49.748 kW
       Mesh    2
       Max CFL number:  0.11E-01 at ( 108,  34,  38)
       Max divergence:  0.67E-02 at (  71,  32,  22)
       Min divergence: -0.11E-02 at (  59,  31,  24)
       Max VN number:   0.83E-02 at ( 109,  48,   2)
       Radiation Loss to Boundaries:        49.597 kW
       Mesh    3
       Max CFL number:  0.11E-01 at (  63,  53,   4)
       Max divergence:  0.26E-02 at (   8,  42,  27)
       Min divergence: -0.25E-03 at (  33,  47,  29)
       Max VN number:   0.84E-02 at ( 118,   2,  34)
       Radiation Loss to Boundaries:        58.801 kW
       Mesh    4
       Max CFL number:  0.11E-01 at (  26,  27,  20)
       Max divergence:  0.26E-02 at ( 160,  19,  34)
       Min divergence: -0.25E-03 at (  73,   4,  36)
       Max VN number:   0.80E-02 at ( 152,  45,  28)
       Radiation Loss to Boundaries:        54.565 kW
       Mesh    5
       Max CFL number:  0.11E-01 at (  40,  26,  28)
       Max divergence:  0.60E-02 at (  46,  32,  22)
       Min divergence: -0.95E-03 at (  46,  31,  24)
       Max VN number:   0.86E-02 at (  68,  18,  33)
       Radiation Loss to Boundaries:        22.809 kW
       Mesh    6
       Max CFL number:  0.11E-01 at (  20,  46,  35)
       Max divergence:  0.57E-02 at (  20,  32,  21)
       Min divergence: -0.13E-02 at (   5,  32,  21)
       Max VN number:   0.87E-02 at (  34,  54,  27)
       Radiation Loss to Boundaries:        17.451 kW
       Mesh    7
       Max CFL number:  0.11E-01 at (  82,  28,  28)
       Max divergence:  0.22E-02 at ( 160,  20,  39)
       Min divergence: -0.25E-03 at (  46,  57,  15)
       Max VN number:   0.84E-02 at (  84,  37,   7)
       Radiation Loss to Boundaries:        57.802 kW
 
       Time Step       4   October 12, 2020  13:40:36
       Step Size:    0.112E+00 s, Total Time:       0.45 s
       Pressure Iterations:      1
       Maximum Velocity Error:  0.23E-02 on Mesh   5 at (  79  19  17)
       Maximum Pressure Error:  0.40E-03 on Mesh   2 at (  71  32  22)
       ---------------------------------------------------------------
       Mesh    1
       Max CFL number:  0.12E-01 at (  80,  50,  34)
       Max divergence:  0.32E-02 at (   8,  19,  34)
       Min divergence: -0.25E-03 at ( 148,   4,  36)
       Max VN number:   0.84E-02 at ( 157,  12,  21)
       Radiation Loss to Boundaries:        49.736 kW
       Mesh    2
       Max CFL number:  0.11E-01 at ( 108,  34,  39)
       Max divergence:  0.63E-02 at (  71,  32,  22)
       Min divergence: -0.12E-02 at (  59,  32,  21)
       Max VN number:   0.83E-02 at ( 109,  48,   2)
       Radiation Loss to Boundaries:        49.585 kW
       Mesh    3
       Max CFL number:  0.11E-01 at (  63,  53,   4)
       Max divergence:  0.32E-02 at (   8,  42,  27)
       Min divergence: -0.25E-03 at (  33,  47,  29)
       Max VN number:   0.84E-02 at ( 122,   3,   3)
       Radiation Loss to Boundaries:        58.788 kW
       Mesh    4
       Max CFL number:  0.11E-01 at (  26,  27,  20)
       Max divergence:  0.32E-02 at ( 160,  19,  34)
       Min divergence: -0.25E-03 at (  73,   4,  36)
       Max VN number:   0.80E-02 at ( 152,  45,  28)
       Radiation Loss to Boundaries:        54.552 kW
       Mesh    5
       Max CFL number:  0.11E-01 at (  40,  26,  28)
       Max divergence:  0.58E-02 at (  46,  32,  22)
       Min divergence: -0.13E-02 at (  35,  32,  21)
       Max VN number:   0.86E-02 at (  68,  18,  33)
       Total Heat Release Rate:              0.911 kW
       Radiation Loss to Boundaries:        22.804 kW
       Mesh    6
       Max CFL number:  0.11E-01 at (  20,  46,  35)
       Max divergence:  0.47E-02 at (   7,  32,  21)
       Min divergence: -0.11E-02 at (  18,  31,  24)
       Max VN number:   0.86E-02 at (  34,  54,  27)
       Radiation Loss to Boundaries:        17.447 kW
       Mesh    7
       Max CFL number:  0.11E-01 at (  14,   6,   5)
       Max divergence:  0.27E-02 at ( 160,  20,  39)
       Min divergence: -0.25E-03 at (  46,  58,  15)
       Max VN number:   0.84E-02 at (  84,  37,   7)
       Radiation Loss to Boundaries:        57.789 kW
 
       Time Step       5   October 12, 2020  13:40:38
       Step Size:    0.112E+00 s, Total Time:       0.56 s
       Pressure Iterations:      1
       Maximum Velocity Error:  0.16E-02 on Mesh   3 at (  45  61  29)
       Maximum Pressure Error:  0.70E-03 on Mesh   2 at (  71  32  22)
       ---------------------------------------------------------------
       Mesh    1
       Max CFL number:  0.12E-01 at (  80,  50,  35)
       Max divergence:  0.32E-02 at (   8,  19,  34)
       Min divergence: -0.25E-03 at ( 148,   4,  36)
       Max VN number:   0.84E-02 at ( 157,  12,  21)
       Radiation Loss to Boundaries:        49.725 kW
       Mesh    2
       Max CFL number:  0.11E-01 at ( 108,  34,  39)
       Max divergence:  0.63E-02 at (  71,  32,  22)
       Min divergence: -0.12E-02 at (  59,  32,  21)
       Max VN number:   0.83E-02 at ( 109,  48,   2)
       Radiation Loss to Boundaries:        49.573 kW
       Mesh    3
       Max CFL number:  0.11E-01 at (  63,  53,   4)
       Max divergence:  0.32E-02 at (   8,  42,  27)
       Min divergence: -0.25E-03 at (  33,  47,  29)
       Max VN number:   0.84E-02 at ( 122,   3,   3)
       Radiation Loss to Boundaries:        58.774 kW
       Mesh    4
       Max CFL number:  0.11E-01 at (  26,  27,  20)
       Max divergence:  0.32E-02 at ( 160,  19,  34)
       Min divergence: -0.25E-03 at (  73,   4,  36)
       Max VN number:   0.80E-02 at ( 152,  45,  28)
       Radiation Loss to Boundaries:        54.540 kW
       Mesh    5
       Max CFL number:  0.11E-01 at (  40,  26,  28)
       Max divergence:  0.12E-01 at (  64,  21,   8)
       Min divergence: -0.13E-02 at (  35,  32,  21)
       Max VN number:   0.85E-02 at (  68,  18,  33)
       Total Heat Release Rate:              1.773 kW
       Radiation Loss to Boundaries:        22.798 kW
       Mesh    6
       Max CFL number:  0.11E-01 at (  20,  46,  35)
       Max divergence:  0.47E-02 at (   7,  32,  21)
       Min divergence: -0.11E-02 at (  18,  31,  24)
       Max VN number:   0.86E-02 at (  34,  54,  27)
       Radiation Loss to Boundaries:        17.443 kW
       Mesh    7
       Max CFL number:  0.11E-01 at (  46,  18,  14)
       Max divergence:  0.27E-02 at ( 160,  20,  39)
       Min divergence: -0.25E-03 at (  46,  58,  15)
       Max VN number:   0.84E-02 at (  84,  37,   7)
       Radiation Loss to Boundaries:        57.776 kW
 
       Time Step       6   October 12, 2020  13:40:40
       Step Size:    0.112E+00 s, Total Time:       0.67 s
       Pressure Iterations:      1
       Maximum Velocity Error:  0.15E-02 on Mesh   6 at (  45  61  36)
       Maximum Pressure Error:  0.14E-02 on Mesh   5 at (  64  21   8)
       ---------------------------------------------------------------
       Mesh    1
       Max CFL number:  0.12E-01 at (  80,  50,  35)
       Max divergence:  0.36E-02 at (   8,  19,  34)
       Min divergence: -0.25E-03 at ( 111,   4,  22)
       Max VN number:   0.84E-02 at ( 157,  12,  21)
       Radiation Loss to Boundaries:        49.328 kW
       Mesh    2
       Max CFL number:  0.11E-01 at ( 111,  32,  19)
       Max divergence:  0.60E-02 at (  71,  32,  22)
       Min divergence: -0.12E-02 at (  59,  32,  21)
       Max VN number:   0.83E-02 at ( 109,  48,   2)
       Radiation Loss to Boundaries:        49.174 kW
       Mesh    3
       Max CFL number:  0.11E-01 at (  63,  53,   4)
       Max divergence:  0.36E-02 at (   8,  42,  27)
       Min divergence: -0.25E-03 at (  71,  53,  29)
       Max VN number:   0.84E-02 at ( 122,   3,   3)
       Radiation Loss to Boundaries:        59.244 kW
       Mesh    4
       Max CFL number:  0.11E-01 at (  26,  27,  20)
       Max divergence:  0.36E-02 at ( 160,  19,  34)
       Min divergence: -0.25E-03 at (  46,   5,  22)
       Max VN number:   0.80E-02 at ( 152,  45,  28)
       Radiation Loss to Boundaries:        55.298 kW
       Mesh    5
       Max CFL number:  0.11E-01 at (  40,  26,  28)
       Max divergence:  0.15E-01 at (  65,  21,   8)
       Min divergence: -0.13E-02 at (  35,  32,  21)
       Max VN number:   0.85E-02 at (  68,  18,  33)
       Total Heat Release Rate:              2.569 kW
       Radiation Loss to Boundaries:        24.367 kW
       Mesh    6
       Max CFL number:  0.11E-01 at (  20,  46,  35)
       Max divergence:  0.45E-02 at (  20,  31,  24)
       Min divergence: -0.11E-02 at (  31,  32,  21)
       Max VN number:   0.86E-02 at (  34,  54,  27)
       Radiation Loss to Boundaries:        18.187 kW
       Mesh    7
       Max CFL number:  0.11E-01 at (  46,  18,  14)
       Max divergence:  0.31E-02 at ( 160,  20,  39)
       Min divergence: -0.25E-03 at (  46,  55,  15)
       Max VN number:   0.84E-02 at (  84,  37,   7)
       Radiation Loss to Boundaries:        59.052 kW
 
       Time Step       7   October 12, 2020  13:40:42
       Step Size:    0.112E+00 s, Total Time:       0.78 s
       Pressure Iterations:      1
       Maximum Velocity Error:  0.17E-02 on Mesh   4 at ( 145   0  36)
       Maximum Pressure Error:  0.26E-02 on Mesh   5 at (  65  21   8)
       ---------------------------------------------------------------
       Mesh    1
       Max CFL number:  0.12E-01 at (  80,  50,  35)
       Max divergence:  0.36E-02 at (   8,  19,  34)
       Min divergence: -0.25E-03 at ( 111,   4,  22)
       Max VN number:   0.83E-02 at ( 157,  12,  21)
       Radiation Loss to Boundaries:        49.317 kW
       Mesh    2
       Max CFL number:  0.12E-01 at ( 111,  32,  19)
       Max divergence:  0.53E-02 at (   8,   7,  27)
       Min divergence: -0.14E-02 at (  59,  32,  21)
       Max VN number:   0.82E-02 at ( 109,  48,   2)
       Radiation Loss to Boundaries:        49.162 kW
       Mesh    3
       Max CFL number:  0.11E-01 at (  63,  53,   4)
       Max divergence:  0.36E-02 at (   8,  42,  27)
       Min divergence: -0.25E-03 at (  71,  53,  29)
       Max VN number:   0.84E-02 at ( 122,   3,   3)
       Radiation Loss to Boundaries:        59.230 kW
       Mesh    4
       Max CFL number:  0.11E-01 at (  26,  27,  20)
       Max divergence:  0.36E-02 at ( 160,  19,  34)
       Min divergence: -0.25E-03 at (  46,   5,  22)
       Max VN number:   0.80E-02 at ( 152,  45,  28)
       Radiation Loss to Boundaries:        55.285 kW
       Mesh    5
       Max CFL number:  0.11E-01 at (  40,  26,  28)
       Max divergence:  0.18E-01 at (  65,  21,   8)
       Min divergence: -0.14E-02 at (  35,  32,  22)
       Max VN number:   0.85E-02 at (  68,  18,  33)
       Total Heat Release Rate:              3.398 kW
       Radiation Loss to Boundaries:        24.360 kW
       Mesh    6
       Max CFL number:  0.11E-01 at (  20,  46,  35)
       Max divergence:  0.41E-02 at (  20,  31,  24)
       Min divergence: -0.12E-02 at (  18,  32,  21)
       Max VN number:   0.86E-02 at (  34,  54,  27)
       Radiation Loss to Boundaries:        18.182 kW
       Mesh    7
       Max CFL number:  0.11E-01 at (  46,  18,  14)
       Max divergence:  0.31E-02 at ( 160,  20,  39)
       Min divergence: -0.25E-03 at (  46,  55,  15)
       Max VN number:   0.84E-02 at (  84,  37,   7)
       Radiation Loss to Boundaries:        59.038 kW
 
       Time Step       8   October 12, 2020  13:40:44
       Step Size:    0.112E+00 s, Total Time:       0.89 s
       Pressure Iterations:      1
       Maximum Velocity Error:  0.17E-02 on Mesh   2 at (  98  61  36)
       Maximum Pressure Error:  0.39E-02 on Mesh   5 at (  65  21   8)
       ---------------------------------------------------------------
       Mesh    1
       Max CFL number:  0.12E-01 at (  80,  50,  35)
       Max divergence:  0.39E-02 at (   8,  19,  34)
       Min divergence: -0.25E-03 at ( 111,   4,  22)
       Max VN number:   0.83E-02 at ( 157,  12,  21)
       Radiation Loss to Boundaries:        49.305 kW
       Mesh    2
       Max CFL number:  0.13E-01 at ( 111,  32,  19)
       Max divergence:  0.58E-02 at (   8,   7,  27)
       Min divergence: -0.13E-02 at (  59,  32,  21)
       Max VN number:   0.82E-02 at ( 109,  48,   2)
       Radiation Loss to Boundaries:        49.151 kW
       Mesh    3
       Max CFL number:  0.11E-01 at (  63,  53,   4)
       Max divergence:  0.39E-02 at (   8,  42,  27)
       Min divergence: -0.24E-03 at (  71,  53,  29)
       Max VN number:   0.83E-02 at ( 122,   3,   3)
       Radiation Loss to Boundaries:        59.217 kW
       Mesh    4
       Max CFL number:  0.11E-01 at (  26,  27,  20)
       Max divergence:  0.39E-02 at ( 160,  19,  34)
       Min divergence: -0.24E-03 at (  46,   5,  22)
       Max VN number:   0.80E-02 at ( 152,  45,  28)
       Radiation Loss to Boundaries:        55.272 kW
       Mesh    5
       Max CFL number:  0.11E-01 at (  40,  26,  28)
       Max divergence:  0.20E-01 at (  65,  21,   8)
       Min divergence: -0.13E-02 at (  35,  32,  22)
       Max VN number:   0.84E-02 at (  68,  18,  33)
       Total Heat Release Rate:              4.242 kW
       Radiation Loss to Boundaries:        24.353 kW
       Mesh    6
       Max CFL number:  0.11E-01 at (  20,  46,  35)
       Max divergence:  0.41E-02 at (  20,  31,  24)
       Min divergence: -0.12E-02 at (  18,  32,  21)
       Max VN number:   0.86E-02 at (  34,  54,  27)
       Radiation Loss to Boundaries:        18.178 kW
       Mesh    7
       Max CFL number:  0.11E-01 at (  46,  18,  14)
       Max divergence:  0.33E-02 at ( 160,  20,  39)
       Min divergence: -0.24E-03 at (  46,  55,  15)
       Max VN number:   0.84E-02 at (  84,  37,   7)
       Radiation Loss to Boundaries:        59.024 kW
 
       Time Step       9   October 12, 2020  13:40:47
       Step Size:    0.112E+00 s, Total Time:       1.01 s
       Pressure Iterations:      1
       Maximum Velocity Error:  0.18E-02 on Mesh   4 at ( 136   0  36)
       Maximum Pressure Error:  0.55E-02 on Mesh   5 at (  65  21   8)
       ---------------------------------------------------------------
       Mesh    1
       Max CFL number:  0.12E-01 at (  80,  50,  35)
       Max divergence:  0.38E-02 at (   8,  19,  34)
       Min divergence: -0.25E-03 at ( 111,  11,  22)
       Max VN number:   0.83E-02 at ( 157,  12,  21)
       Radiation Loss to Boundaries:        49.148 kW
       Mesh    2
       Max CFL number:  0.15E-01 at (   8,   7,  11)
       Max divergence:  0.58E-02 at (   8,   7,  27)
       Min divergence: -0.13E-02 at (  59,  32,  21)
       Max VN number:   0.82E-02 at ( 109,  48,   2)
       Radiation Loss to Boundaries:        48.123 kW
       Mesh    3
       Max CFL number:  0.11E-01 at (  63,  53,   4)
       Max divergence:  0.38E-02 at (   8,  42,  27)
       Min divergence: -0.25E-03 at (  21,  14,  28)
       Max VN number:   0.83E-02 at ( 122,   3,   3)
       Radiation Loss to Boundaries:        59.524 kW
       Mesh    4
       Max CFL number:  0.11E-01 at (  26,  27,  20)
       Max divergence:  0.38E-02 at ( 160,  19,  34)
       Min divergence: -0.25E-03 at (  60,  12,  36)
       Max VN number:   0.80E-02 at ( 152,  45,  28)
       Radiation Loss to Boundaries:        55.573 kW
       Mesh    5
       Max CFL number:  0.11E-01 at (  40,  26,  28)
       Max divergence:  0.21E-01 at (  66,  21,   8)
       Min divergence: -0.13E-02 at (  35,  32,  22)
       Max VN number:   0.84E-02 at (  68,  18,  33)
       Total Heat Release Rate:              5.020 kW
       Radiation Loss to Boundaries:        25.227 kW
       Mesh    6
       Max CFL number:  0.12E-01 at (   7,  32,  20)
       Max divergence:  0.40E-02 at (  20,  31,  24)
       Min divergence: -0.12E-02 at (  18,  32,  21)
       Max VN number:   0.86E-02 at (  34,  54,  27)
       Radiation Loss to Boundaries:        18.719 kW
       Mesh    7
       Max CFL number:  0.11E-01 at (  21,  14,  26)
       Max divergence:  0.33E-02 at ( 160,  20,  39)
       Min divergence: -0.24E-03 at ( 121,  33,  40)
       Max VN number:   0.84E-02 at (  84,  37,   7)
       Radiation Loss to Boundaries:        60.514 kW
 
       Time Step      10   October 12, 2020  13:40:49
       Step Size:    0.112E+00 s, Total Time:       1.12 s
       Pressure Iterations:      1
       Maximum Velocity Error:  0.18E-02 on Mesh   4 at ( 136   0  36)
       Maximum Pressure Error:  0.64E-02 on Mesh   5 at (  65  21   8)
       ---------------------------------------------------------------
       Mesh    1
       Max CFL number:  0.12E-01 at (  80,  50,  35)
       Max divergence:  0.41E-02 at (   8,  19,  34)
       Min divergence: -0.25E-03 at (  71,   7,  36)
       Max VN number:   0.83E-02 at ( 157,  12,  21)
       Radiation Loss to Boundaries:        49.137 kW
       Mesh    2
       Max CFL number:  0.17E-01 at (   8,   7,  11)
       Max divergence:  0.63E-02 at (   8,   7,  27)
       Min divergence: -0.13E-02 at (  59,  32,  21)
       Max VN number:   0.82E-02 at ( 109,  48,   2)
       Radiation Loss to Boundaries:        48.111 kW
       Mesh    3
       Max CFL number:  0.11E-01 at (  63,  53,   4)
       Max divergence:  0.41E-02 at (   8,  42,  27)
       Min divergence: -0.25E-03 at (  21,  14,  28)
       Max VN number:   0.83E-02 at ( 122,   3,   3)
       Radiation Loss to Boundaries:        59.511 kW
       Mesh    4
       Max CFL number:  0.11E-01 at ( 160,  10,  19)
       Max divergence:  0.41E-02 at ( 160,  19,  34)
       Min divergence: -0.25E-03 at (  60,  12,  36)
       Max VN number:   0.79E-02 at ( 152,  45,  28)
       Radiation Loss to Boundaries:        55.560 kW
       Mesh    5
       Max CFL number:  0.11E-01 at (  40,  26,  28)
       Max divergence:  0.23E-01 at (  67,  10,   8)
       Min divergence: -0.13E-02 at (  35,  32,  22)
       Max VN number:   0.84E-02 at (  68,  18,  33)
       Total Heat Release Rate:              5.778 kW
       Radiation Loss to Boundaries:        25.219 kW
       Mesh    6
       Max CFL number:  0.13E-01 at (   7,  32,  20)
       Max divergence:  0.40E-02 at (  82,   7,  40)
       Min divergence: -0.13E-02 at (  18,  32,  22)
       Max VN number:   0.85E-02 at (  34,  54,  27)
       Radiation Loss to Boundaries:        18.714 kW
       Mesh    7
       Max CFL number:  0.11E-01 at (  21,  14,  26)
       Max divergence:  0.35E-02 at ( 160,  20,  39)
       Min divergence: -0.24E-03 at ( 121,  33,  40)
       Max VN number:   0.84E-02 at (  84,  37,   7)
       Radiation Loss to Boundaries:        60.501 kW
 
       Time Step      20   October 12, 2020  13:41:12
       Step Size:    0.112E+00 s, Total Time:       2.24 s
       Pressure Iterations:      2
       Maximum Velocity Error:  0.13E-01 on Mesh   5 at (  66  15   7)
       Maximum Pressure Error:  0.12E+01 on Mesh   5 at (  66  15   8)
       ---------------------------------------------------------------
       Mesh    1
       Max CFL number:  0.23E-01 at (   8,  19,  20)
       Max divergence:  0.47E-02 at (   8,  19,  34)
       Min divergence: -0.25E-03 at ( 134,   2,  35)
       Max VN number:   0.99E-02 at (  34,  19,  19)
       Radiation Loss to Boundaries:        48.789 kW
       Mesh    2
       Max CFL number:  0.56E-01 at (   8,   7,  11)
       Max divergence:  0.75E-02 at (   8,   7,  40)
       Min divergence: -0.14E-02 at (  71,  32,  22)
       Max VN number:   0.10E-01 at (   9,   7,  40)
       Radiation Loss to Boundaries:        43.850 kW
       Mesh    3
       Max CFL number:  0.19E-01 at (  46,   9,  12)
       Max divergence:  0.47E-02 at (   8,  42,  13)
       Min divergence: -0.25E-03 at (  21,  13,  28)
       Max VN number:   0.91E-02 at (  84,  42,  26)
       Radiation Loss to Boundaries:        58.655 kW
       Mesh    4
       Max CFL number:  0.21E-01 at ( 160,  16,  20)
       Max divergence:  0.47E-02 at ( 160,  19,  20)
       Min divergence: -0.24E-03 at (  46,   6,  22)
       Max VN number:   0.89E-02 at (  84,  19,  33)
       Radiation Loss to Boundaries:        55.811 kW
       Mesh    5
       Max CFL number:  0.33E-01 at (  58,  32,  20)
       Max divergence:  0.48E+00 at (  66,  15,   8)
       Min divergence: -0.14E-02 at (  71,  32,  21)
       Max VN number:   0.14E-01 at (  68,  21,   9)
       Total Heat Release Rate:             61.656 kW
       Radiation Loss to Boundaries:        17.194 kW
       Mesh    6
       Max CFL number:  0.32E-01 at (  20,  32,  20)
       Max divergence:  0.47E-02 at (  82,   7,  40)
       Min divergence: -0.13E-02 at (  20,  32,  22)
       Max VN number:   0.88E-02 at (  82,   9,  12)
       Radiation Loss to Boundaries:        20.275 kW
       Mesh    7
       Max CFL number:  0.20E-01 at ( 160,  33,  39)
       Max divergence:  0.41E-02 at ( 160,  20,  39)
       Min divergence: -0.24E-03 at (  35,  59,  14)
       Max VN number:   0.97E-02 at (  72,  42,  39)
       Radiation Loss to Boundaries:        62.466 kW
 
       Time Step      30   October 12, 2020  13:41:35
       Step Size:    0.112E+00 s, Total Time:       3.35 s
       Pressure Iterations:      1
       Maximum Velocity Error:  0.50E-02 on Mesh   5 at (  64  19   7)
       Maximum Pressure Error:  0.33E+00 on Mesh   5 at (  65  16   8)
       ---------------------------------------------------------------
       Mesh    1
       Max CFL number:  0.43E-01 at (   8,  19,  20)
       Max divergence:  0.49E-02 at (   8,  19,  34)
       Min divergence: -0.24E-03 at ( 161,  14,  36)
       Max VN number:   0.17E-01 at (   8,  19,  19)
       Radiation Loss to Boundaries:        46.694 kW
       Mesh    2
       Max CFL number:  0.12E+00 at (   8,   7,  11)
       Max divergence:  0.75E-02 at (   8,   7,  40)
       Min divergence: -0.13E-02 at (  83,  32,  22)
       Max VN number:   0.32E-01 at (   8,   7,  13)
       Radiation Loss to Boundaries:        44.296 kW
       Mesh    3
       Max CFL number:  0.40E-01 at (   8,  42,  40)
       Max divergence:  0.49E-02 at (   8,  42,  27)
       Min divergence: -0.24E-03 at ( 161,  49,  29)
       Max VN number:   0.17E-01 at (   8,  42,  39)
       Radiation Loss to Boundaries:        55.405 kW
       Mesh    4
       Max CFL number:  0.41E-01 at ( 160,  19,  34)
       Max divergence:  0.49E-02 at ( 160,  19,  34)
       Min divergence: -0.25E-03 at (   8,  10,  22)
       Max VN number:   0.16E-01 at (  84,  19,  33)
       Radiation Loss to Boundaries:        53.212 kW
       Mesh    5
       Max CFL number:  0.14E+00 at (  69,  11,   8)
       Max divergence:  0.11E+00 at (  68,  12,   8)
       Min divergence: -0.10E-01 at (  68,  14,   9)
       Max VN number:   0.54E-01 at (  62,  11,   8)
       Total Heat Release Rate:             18.804 kW
       Radiation Loss to Boundaries:        16.252 kW
       Mesh    6
       Max CFL number:  0.61E-01 at (  20,  32,  20)
       Max divergence:  0.50E-02 at (  82,   7,  40)
       Min divergence: -0.12E-02 at (   5,  32,  21)
       Max VN number:   0.13E-01 at (  20,  33,  20)
       Radiation Loss to Boundaries:        18.915 kW
       Mesh    7
       Max CFL number:  0.41E-01 at ( 160,  33,  39)
       Max divergence:  0.44E-02 at ( 160,  20,  26)
       Min divergence: -0.25E-03 at (   8,  49,  15)
       Max VN number:   0.16E-01 at ( 160,  42,  39)
       Radiation Loss to Boundaries:        58.139 kW
 
       Time Step      40   October 12, 2020  13:41:58
       Step Size:    0.112E+00 s, Total Time:       4.47 s
       Pressure Iterations:      1
       Maximum Velocity Error:  0.12E-01 on Mesh   5 at (  66  16  11)
       Maximum Pressure Error:  0.40E+00 on Mesh   5 at (  66  16  10)
       ---------------------------------------------------------------
       Mesh    1
       Max CFL number:  0.66E-01 at (   8,  19,  20)
       Max divergence:  0.51E-02 at (   8,  19,  20)
       Min divergence: -0.24E-03 at ( 159,   9,  35)
       Max VN number:   0.25E-01 at (   8,  19,  33)
       Radiation Loss to Boundaries:        47.119 kW
       Mesh    2
       Max CFL number:  0.21E+00 at (   8,   7,  13)
       Max divergence:  0.77E-02 at (   8,   7,  40)
       Min divergence: -0.14E-02 at (  83,  32,  21)
       Max VN number:   0.94E-01 at (   8,   7,  27)
       Radiation Loss to Boundaries:        46.728 kW
       Mesh    3
       Max CFL number:  0.67E-01 at (   8,  53,  27)
       Max divergence:  0.50E-02 at (   8,  42,  27)
       Min divergence: -0.24E-03 at (  59,  53,  15)
       Max VN number:   0.25E-01 at (   8,  42,  39)
       Radiation Loss to Boundaries:        56.736 kW
       Mesh    4
       Max CFL number:  0.67E-01 at ( 160,   6,  20)
       Max divergence:  0.50E-02 at ( 160,  19,  34)
       Min divergence: -0.25E-03 at (   8,   2,  35)
       Max VN number:   0.24E-01 at ( 160,  19,  19)
       Radiation Loss to Boundaries:        53.699 kW
       Mesh    5
       Max CFL number:  0.40E+00 at (  66,  16,   9)
       Max divergence:  0.10E+00 at (  69,  14,   8)
       Min divergence: -0.72E-01 at (  67,  17,   9)
       Max VN number:   0.22E+00 at (  65,  16,  10)
       Total Heat Release Rate:             25.118 kW
       Radiation Loss to Boundaries:        18.672 kW
       Mesh    6
       Max CFL number:  0.98E-01 at (  20,  32,  20)
       Max divergence:  0.50E-02 at (  82,   7,  27)
       Min divergence: -0.14E-02 at (   5,  32,  21)
       Max VN number:   0.26E-01 at (  20,  32,  22)
       Radiation Loss to Boundaries:        19.069 kW
       Mesh    7
       Max CFL number:  0.66E-01 at ( 160,  33,  39)
       Max divergence:  0.44E-02 at ( 160,  20,  26)
       Min divergence: -0.23E-03 at ( 134,  13,  40)
       Max VN number:   0.25E-01 at ( 160,  42,  39)
       Radiation Loss to Boundaries:        58.206 kW
 
       Time Step      50   October 12, 2020  13:42:20
[...]
       Step Size:    0.400E-01 s, Total Time:     305.71 s
       Pressure Iterations:      6
       Maximum Velocity Error:  0.20E-01 on Mesh   5 at (  70   9   8)
       Maximum Pressure Error:  0.16E+03 on Mesh   5 at (  64   9   8)
       ---------------------------------------------------------------
       Mesh    1
       Max CFL number:  0.31E+00 at ( 161,  59,  31)
       Max divergence:  0.12E+00 at (   8,   6,  34)
       Min divergence: -0.23E-01 at (   7,   6,  20)
       Max VN number:   0.19E+00 at (   8,   2,  34)
       Radiation Loss to Boundaries:       143.313 kW
       Mesh    2
       Max CFL number:  0.30E+00 at (   6,  60,  40)
       Max divergence:  0.11E+00 at ( 160,   4,  13)
       Min divergence: -0.19E-01 at (  23,   9,  40)
       Max VN number:   0.19E+00 at (   8,   7,  40)
       Radiation Loss to Boundaries:       207.878 kW
       Mesh    3
       Max CFL number:  0.21E+00 at (   7,  57,  39)
       Max divergence:  0.13E+00 at (   8,  55,  40)
       Min divergence: -0.14E-01 at (   7,  45,  13)
       Max VN number:   0.13E+00 at (   8,  22,  39)
       Radiation Loss to Boundaries:       219.238 kW
       Mesh    4
       Max CFL number:  0.61E+00 at (  61,  58,  30)
       Max divergence:  0.14E+00 at (  64,  54,  22)
       Min divergence: -0.95E-01 at (  64,  54,  21)
       Max VN number:   0.30E+00 at (  60,  19,  22)
       Radiation Loss to Boundaries:       111.667 kW
       Mesh    5
       Max CFL number:  0.94E+00 at (  66,   9,   9)
       Max divergence:  0.76E+01 at (  66,   9,   9)
       Min divergence: -0.17E+01 at (  69,  14,  10)
       Max VN number:   0.63E+00 at (  72,  18,  13)
       Total Heat Release Rate:           1492.317 kW
       Radiation Loss to Boundaries:      -370.251 kW
       Mesh    6
       Max CFL number:  0.64E+00 at (   5,  33,  15)
       Max divergence:  0.24E+00 at (   5,  34,  14)
       Min divergence: -0.32E+00 at (   5,  32,  14)
       Max VN number:   0.29E+00 at (   5,  33,  15)
       Total Heat Release Rate:              0.247 kW
       Radiation Loss to Boundaries:       107.797 kW
       Mesh    7
       Max CFL number:  0.87E+00 at (  66,   4,  40)
       Max divergence:  0.17E+00 at (  62,   8,  13)
       Min divergence: -0.23E+00 at (  60,  60,  13)
       Max VN number:   0.28E+00 at (  60,  42,  15)
       Total Heat Release Rate:              0.022 kW
       Radiation Loss to Boundaries:       127.578 kW
 
       Time Step    6400   October 12, 2020  18:11:04
       Step Size:    0.341E-01 s, Total Time:     309.22 s
       Pressure Iterations:      3
       Maximum Velocity Error:  0.19E-01 on Mesh   5 at (  64  18   7)
       Maximum Pressure Error:  0.74E+02 on Mesh   5 at (  64  19   8)
       ---------------------------------------------------------------
       Mesh    1
       Max CFL number:  0.29E+00 at ( 161,  60,  40)
       Max divergence:  0.12E+00 at (   8,   6,  34)
       Min divergence: -0.21E-01 at (   7,   6,  20)
       Max VN number:   0.16E+00 at (   8,   2,  34)
       Radiation Loss to Boundaries:       142.105 kW
       Mesh    2
       Max CFL number:  0.24E+00 at (   6,   9,  40)
       Max divergence:  0.13E+00 at (  58,  55,  34)
       Min divergence: -0.20E-01 at (   7,  52,  34)
       Max VN number:   0.18E+00 at (   8,  55,  34)
       Radiation Loss to Boundaries:       223.169 kW
       Mesh    3
       Max CFL number:  0.19E+00 at (   7,  57,  40)
       Max divergence:  0.13E+00 at (   8,  55,  40)
       Min divergence: -0.12E-01 at (   7,  55,  27)
       Max VN number:   0.11E+00 at ( 154,   8,  28)
       Radiation Loss to Boundaries:       224.271 kW
       Mesh    4
       Max CFL number:  0.53E+00 at (  62,  58,  33)
       Max divergence:  0.11E+00 at ( 160,  29,  33)
       Min divergence: -0.83E-01 at (  67,  54,  21)
       Max VN number:   0.29E+00 at (  61,  19,  22)
       Radiation Loss to Boundaries:       110.297 kW
       Mesh    5
       Max CFL number:  0.94E+00 at (  72,  18,  13)
       Max divergence:  0.77E+01 at (  71,  18,   8)
       Min divergence: -0.16E+01 at (  65,  11,  10)
       Max VN number:   0.69E+00 at (  72,  19,  13)
       Total Heat Release Rate:           1386.302 kW
       Radiation Loss to Boundaries:      -270.777 kW
       Mesh    6
       Max CFL number:  0.55E+00 at (   5,  35,  15)
       Max divergence:  0.17E+00 at (   3,  33,  14)
       Min divergence: -0.37E+00 at (   5,  33,  14)
       Max VN number:   0.23E+00 at (   5,  35,  15)
       Total Heat Release Rate:              0.035 kW
       Radiation Loss to Boundaries:       106.577 kW
       Mesh    7
       Max CFL number:  0.58E+00 at (  66,   2,  35)
       Max divergence:  0.21E+00 at (  62,   7,  13)
       Min divergence: -0.29E+00 at (  60,   7,  14)
       Max VN number:   0.24E+00 at (  60,   7,  14)
       Total Heat Release Rate:              0.040 kW
       Radiation Loss to Boundaries:       125.908 kW
 
       Time Step    6500   October 12, 2020  18:15:29
       Step Size:    0.387E-01 s, Total Time:     313.05 s
       Pressure Iterations:      4
       Maximum Velocity Error:  0.25E-01 on Mesh   5 at (  64  17  11)
       Maximum Pressure Error:  0.11E+03 on Mesh   5 at (  62  10   9)
       ---------------------------------------------------------------
       Mesh    1
       Max CFL number:  0.32E+00 at ( 161,  60,  40)
       Max divergence:  0.13E+00 at (   8,   6,  34)
       Min divergence: -0.21E-01 at (   7,   6,  20)
       Max VN number:   0.18E+00 at (   8,   4,  34)
       Radiation Loss to Boundaries:       144.910 kW
       Mesh    2
       Max CFL number:  0.27E+00 at (   7,  54,  34)
       Max divergence:  0.13E+00 at (  58,  55,  34)
       Min divergence: -0.23E-01 at (   7,   7,  27)
       Max VN number:   0.17E+00 at (   8,  53,  34)
       Radiation Loss to Boundaries:       233.142 kW
       Mesh    3
       Max CFL number:  0.22E+00 at (   7,  56,  40)
       Max divergence:  0.23E+00 at (   8,  55,  13)
       Min divergence: -0.11E-01 at (   7,  32,  17)
       Max VN number:   0.13E+00 at (   8,  55,  40)
       Radiation Loss to Boundaries:       239.445 kW
       Mesh    4
       Max CFL number:  0.60E+00 at (  59,  58,  31)
       Max divergence:  0.10E+00 at ( 160,  29,  19)
       Min divergence: -0.65E-01 at (  73,  54,  21)
       Max VN number:   0.32E+00 at (  69,  19,  22)
       Radiation Loss to Boundaries:       108.662 kW
       Mesh    5
       Max CFL number:  0.86E+00 at (  71,  32,  15)
       Max divergence:  0.74E+01 at (  64,   9,   9)
       Min divergence: -0.16E+01 at (  64,  10,   9)
       Max VN number:   0.49E+00 at (  64,   8,  15)
       Total Heat Release Rate:           1351.458 kW
       Radiation Loss to Boundaries:      -251.694 kW
       Mesh    6
       Max CFL number:  0.62E+00 at (   5,  34,  15)
       Max divergence:  0.17E+00 at (   3,  33,  14)
       Min divergence: -0.34E+00 at (   5,  34,  15)
       Max VN number:   0.29E+00 at (   5,  35,  15)
       Total Heat Release Rate:              0.021 kW
       Radiation Loss to Boundaries:       109.271 kW
       Mesh    7
       Max CFL number:  0.66E+00 at (  63,   6,  38)
       Max divergence:  0.22E+00 at (  62,  42,  15)
       Min divergence: -0.35E+00 at (  62,  42,  14)
       Max VN number:   0.29E+00 at (  63,  42,  15)
       Total Heat Release Rate:              0.013 kW
       Radiation Loss to Boundaries:       136.563 kW
 
       Time Step    6600   October 12, 2020  18:19:50
       Step Size:    0.375E-01 s, Total Time:     316.78 s
       Pressure Iterations:      3
       Maximum Velocity Error:  0.25E-01 on Mesh   5 at (  67   9   8)
       Maximum Pressure Error:  0.17E+03 on Mesh   5 at (  62  13   8)
       ---------------------------------------------------------------
       Mesh    1
       Max CFL number:  0.31E+00 at ( 160,  59,  39)
       Max divergence:  0.12E+00 at (   8,   6,  34)
       Min divergence: -0.26E-01 at (   7,   6,  20)
       Max VN number:   0.17E+00 at (   8,   2,  34)
       Radiation Loss to Boundaries:       157.096 kW
       Mesh    2
       Max CFL number:  0.27E+00 at (   5,  11,  40)
       Max divergence:  0.11E+00 at (  58,  55,  34)
       Min divergence: -0.18E-01 at (   7,  52,  34)
       Max VN number:   0.20E+00 at (   8,   7,  40)
       Radiation Loss to Boundaries:       224.878 kW
       Mesh    3
       Max CFL number:  0.27E+00 at (   7,  57,  40)
       Max divergence:  0.17E+00 at (   8,  55,  13)
       Min divergence: -0.29E-01 at (   7,  56,  18)
       Max VN number:   0.14E+00 at (   8,  57,  40)
       Radiation Loss to Boundaries:       236.945 kW
       Mesh    4
       Max CFL number:  0.54E+00 at (  66,  54,  21)
       Max divergence:  0.11E+00 at (  75,  54,  23)
       Min divergence: -0.95E-01 at (  68,  19,  21)
       Max VN number:   0.29E+00 at (  69,  19,  22)
       Radiation Loss to Boundaries:       122.415 kW
       Mesh    5
       Max CFL number:  0.82E+00 at (  71,  17,   9)
       Max divergence:  0.96E+01 at (  67,  10,   8)
       Min divergence: -0.14E+01 at (  69,  22,  10)
       Max VN number:   0.65E+00 at (  72,  19,  13)
       Total Heat Release Rate:           1356.890 kW
       Radiation Loss to Boundaries:      -280.034 kW
       Mesh    6
       Max CFL number:  0.56E+00 at (   5,  35,  15)
       Max divergence:  0.16E+00 at (   6,  34,  14)
       Min divergence: -0.23E+00 at (   5,  33,  14)
       Max VN number:   0.33E+00 at (   6,  37,  20)
       Total Heat Release Rate:              0.041 kW
       Radiation Loss to Boundaries:       115.867 kW
       Mesh    7
       Max CFL number:  0.64E+00 at (  62,  56,  15)
       Max divergence:  0.19E+00 at (  61,   7,  13)
       Min divergence: -0.42E+00 at (  60,  42,  14)
       Max VN number:   0.28E+00 at (  62,  42,  15)
       Total Heat Release Rate:              0.011 kW
       Radiation Loss to Boundaries:       132.909 kW
 
       Time Step    6700   October 12, 2020  18:24:13
       Step Size:    0.347E-01 s, Total Time:     320.58 s
       Pressure Iterations:      3
       Maximum Velocity Error:  0.20E-01 on Mesh   5 at (  63  16   7)
       Maximum Pressure Error:  0.73E+02 on Mesh   5 at (  67  11   8)
       ---------------------------------------------------------------
       Mesh    1
       Max CFL number:  0.30E+00 at ( 162,  60,  38)
       Max divergence:  0.12E+00 at (   8,   6,  34)
       Min divergence: -0.19E-01 at (   7,   8,  34)
       Max VN number:   0.16E+00 at (   8,   4,  34)
       Radiation Loss to Boundaries:       159.296 kW
       Mesh    2
       Max CFL number:  0.25E+00 at (   7,  54,  34)
       Max divergence:  0.11E+00 at (  58,  55,  34)
       Min divergence: -0.22E-01 at (   7,  52,  34)
       Max VN number:   0.19E+00 at (   8,   7,  40)
       Radiation Loss to Boundaries:       232.229 kW
       Mesh    3
       Max CFL number:  0.23E+00 at (   7,  57,  40)
       Max divergence:  0.23E+00 at (   8,  45,  40)
       Min divergence: -0.16E-01 at (   7,  42,  13)
       Max VN number:   0.13E+00 at (   8,  55,  40)
       Radiation Loss to Boundaries:       242.676 kW
       Mesh    4
       Max CFL number:  0.55E+00 at (  64,  59,  35)
       Max divergence:  0.11E+00 at ( 160,  29,  33)
       Min divergence: -0.93E-01 at (  60,  54,  21)
       Max VN number:   0.26E+00 at (  72,  19,  20)
       Radiation Loss to Boundaries:       122.511 kW
       Mesh    5
       Max CFL number:  0.87E+00 at (  71,  17,   9)
       Max divergence:  0.69E+01 at (  71,  17,   8)
       Min divergence: -0.24E+01 at (  64,   9,   8)
       Max VN number:   0.70E+00 at (  72,  19,  13)
       Total Heat Release Rate:           1437.846 kW
       Radiation Loss to Boundaries:      -315.984 kW
       Mesh    6
       Max CFL number:  0.49E+00 at (   5,  33,  15)
       Max divergence:  0.11E+00 at (   6,  15,  12)
       Min divergence: -0.24E+00 at (   5,  32,  14)
       Max VN number:   0.26E+00 at (   6,  39,  20)
       Total Heat Release Rate:              0.010 kW
       Radiation Loss to Boundaries:       124.061 kW
       Mesh    7
       Max CFL number:  0.65E+00 at (  66,   4,  35)
       Max divergence:  0.19E+00 at (  62,   7,  13)
       Min divergence: -0.25E+00 at (  60,   7,  14)
       Max VN number:   0.25E+00 at (  70,  42,  15)
       Total Heat Release Rate:              0.040 kW
       Radiation Loss to Boundaries:       134.607 kW
 
       Time Step    6800   October 12, 2020  18:28:28
       Step Size:    0.365E-01 s, Total Time:     324.22 s
       Pressure Iterations:      7
       Maximum Velocity Error:  0.19E-01 on Mesh   5 at (  63   9   8)
       Maximum Pressure Error:  0.16E+03 on Mesh   5 at (  63  10   8)
       ---------------------------------------------------------------
       Mesh    1
       Max CFL number:  0.30E+00 at ( 148,  59,  37)
       Max divergence:  0.12E+00 at (   8,   6,  34)
       Min divergence: -0.16E-01 at (   7,   6,  20)
       Max VN number:   0.18E+00 at (   8,   4,  34)
       Radiation Loss to Boundaries:       160.362 kW
       Mesh    2
       Max CFL number:  0.28E+00 at (   5,  55,  29)
       Max divergence:  0.11E+00 at (  22,   9,  13)
       Min divergence: -0.20E-01 at (   7,  52,  34)
       Max VN number:   0.19E+00 at (   8,   7,  40)
       Radiation Loss to Boundaries:       242.484 kW
       Mesh    3
       Max CFL number:  0.23E+00 at (   7,  58,  17)
       Max divergence:  0.29E+00 at (   8,  55,  40)
       Min divergence: -0.19E-01 at (   7,  42,  13)
       Max VN number:   0.12E+00 at (   8,  22,  39)
       Radiation Loss to Boundaries:       255.334 kW
       Mesh    4
       Max CFL number:  0.50E+00 at (  70,  60,  38)
       Max divergence:  0.10E+00 at (  62,  54,  23)
       Min divergence: -0.82E-01 at (  60,  55,  21)
       Max VN number:   0.29E+00 at (  63,  19,  22)
       Radiation Loss to Boundaries:       120.008 kW
       Mesh    5
       Max CFL number:  0.85E+00 at (  71,  15,  13)
       Max divergence:  0.71E+01 at (  71,  15,   8)
       Min divergence: -0.14E+01 at (  63,  10,   8)
       Max VN number:   0.57E+00 at (  72,  14,  13)
       Total Heat Release Rate:           1325.375 kW
       Radiation Loss to Boundaries:      -195.915 kW
       Mesh    6
       Max CFL number:  0.51E+00 at (   5,  32,  15)
       Max divergence:  0.25E+00 at (   5,  33,  14)
       Min divergence: -0.40E+00 at (   5,  32,  15)
       Max VN number:   0.24E+00 at (   5,  32,  15)
       Total Heat Release Rate:              0.002 kW
       Radiation Loss to Boundaries:       119.182 kW
       Mesh    7
       Max CFL number:  0.54E+00 at (  68,   2,  27)
       Max divergence:  0.13E+00 at (  65,   7,  13)
       Min divergence: -0.27E+00 at (  61,  42,  14)
       Max VN number:   0.26E+00 at (  61,  42,  15)
       Total Heat Release Rate:              0.006 kW
       Radiation Loss to Boundaries:       136.717 kW
 
       Time Step    6900   October 12, 2020  18:32:48
       Step Size:    0.400E-01 s, Total Time:     327.88 s
       Pressure Iterations:      3
       Maximum Velocity Error:  0.24E-01 on Mesh   5 at (  63  14   7)
       Maximum Pressure Error:  0.15E+03 on Mesh   5 at (  63  14   8)
       ---------------------------------------------------------------
       Mesh    1
       Max CFL number:  0.34E+00 at ( 164,  60,  37)
       Max divergence:  0.17E+00 at (   8,  16,  20)
       Min divergence: -0.25E-01 at (   7,   6,  20)
       Max VN number:   0.20E+00 at (   8,   2,  34)
       Radiation Loss to Boundaries:       169.491 kW
       Mesh    2
       Max CFL number:  0.31E+00 at (   4,  11,  39)
       Max divergence:  0.15E+00 at (   8,   5,  27)
       Min divergence: -0.25E-01 at (   7,  52,  34)
       Max VN number:   0.21E+00 at (   8,  11,  29)
       Radiation Loss to Boundaries:       243.365 kW
       Mesh    3
       Max CFL number:  0.24E+00 at (   7,  59,  40)
       Max divergence:  0.27E+00 at (   8,  55,  13)
       Min divergence: -0.26E-01 at (   7,  55,  27)
       Max VN number:   0.14E+00 at (   8,  58,  40)
       Radiation Loss to Boundaries:       305.237 kW
       Mesh    4
       Max CFL number:  0.58E+00 at (  59,  59,  29)
       Max divergence:  0.12E+00 at (  62,  54,  22)
       Min divergence: -0.84E-01 at (  62,  54,  21)
       Max VN number:   0.30E+00 at (  60,  19,  22)
       Radiation Loss to Boundaries:       117.401 kW
       Mesh    5
       Max CFL number:  0.98E+00 at (  60,  16,  12)
       Max divergence:  0.93E+01 at (  63,  14,   8)
       Min divergence: -0.17E+01 at (  60,  16,  12)
       Max VN number:   0.59E+00 at (  59,  17,  13)
       Total Heat Release Rate:           1260.781 kW
       Radiation Loss to Boundaries:      -193.094 kW
       Mesh    6
       Max CFL number:  0.55E+00 at (   5,  33,  15)
       Max divergence:  0.16E+00 at (   1,  33,  14)
       Min divergence: -0.25E+00 at (   1,  32,  15)
       Max VN number:   0.27E+00 at (   6,  37,  20)
       Total Heat Release Rate:              0.056 kW
       Radiation Loss to Boundaries:       121.392 kW
       Mesh    7
       Max CFL number:  0.71E+00 at (  64,   4,  39)
       Max divergence:  0.17E+00 at (  62,   7,  13)
       Min divergence: -0.24E+00 at (  62,  42,  14)
       Max VN number:   0.30E+00 at (  61,  42,  15)
       Total Heat Release Rate:              0.056 kW
       Radiation Loss to Boundaries:       144.110 kW
 
       Time Step    7000   October 12, 2020  18:37:17
       Step Size:    0.402E-01 s, Total Time:     331.67 s
       Pressure Iterations:      4
       Maximum Velocity Error:  0.24E-01 on Mesh   5 at (  70   9   8)
       Maximum Pressure Error:  0.14E+03 on Mesh   5 at (  62  12   8)
       ---------------------------------------------------------------
       Mesh    1
       Max CFL number:  0.36E+00 at (   4,  13,  36)
       Max divergence:  0.15E+00 at (   8,  16,  20)
       Min divergence: -0.23E-01 at (   7,   6,  20)
       Max VN number:   0.20E+00 at (   8,  16,  34)
       Radiation Loss to Boundaries:       166.142 kW
       Mesh    2
       Max CFL number:  0.31E+00 at (   6,  54,  39)
       Max divergence:  0.21E+00 at ( 160,  18,  27)
       Min divergence: -0.21E-01 at (   7,   9,  13)
       Max VN number:   0.20E+00 at (   8,   7,  40)
       Radiation Loss to Boundaries:       261.750 kW
       Mesh    3
       Max CFL number:  0.28E+00 at (   7,  57,  17)
       Max divergence:  0.19E+00 at (   8,  55,  40)
       Min divergence: -0.21E-01 at (   7,  57,  17)
       Max VN number:   0.18E+00 at (   8,  56,  40)
       Radiation Loss to Boundaries:       283.789 kW
       Mesh    4
       Max CFL number:  0.68E+00 at (  64,  59,  35)
       Max divergence:  0.10E+00 at ( 160,  41,  33)
       Min divergence: -0.94E-01 at (  71,  55,  21)
       Max VN number:   0.31E+00 at (  70,  19,  22)
       Radiation Loss to Boundaries:       129.301 kW
       Mesh    5
       Max CFL number:  0.83E+00 at (  70,  32,  15)
       Max divergence:  0.64E+01 at (  62,  11,   8)
       Min divergence: -0.15E+01 at (  64,   9,   8)
       Max VN number:   0.65E+00 at (  72,  17,  13)
       Total Heat Release Rate:           1436.210 kW
       Radiation Loss to Boundaries:      -318.068 kW
       Mesh    6
       Max CFL number:  0.63E+00 at (   5,  34,  15)
       Max divergence:  0.18E+00 at (   4,  37,  18)
       Min divergence: -0.27E+00 at (   5,  34,  15)
       Max VN number:   0.30E+00 at (   6,  36,  20)
       Total Heat Release Rate:              0.046 kW
       Radiation Loss to Boundaries:       127.348 kW
       Mesh    7
       Max CFL number:  0.77E+00 at (  65,   1,  38)
       Max divergence:  0.18E+00 at (  69,   7,  13)
       Min divergence: -0.30E+00 at (  63,  42,  14)
       Max VN number:   0.32E+00 at (  63,  42,  15)
       Total Heat Release Rate:              0.027 kW
       Radiation Loss to Boundaries:       139.598 kW
 
