
 Fire Dynamics Simulator

 Current Date     : November 13, 2020  14:05:32
 Revision         : -dirty-master
 Revision Date    : Fri Nov 13 13:55:55 2020 +0100
 Compiler         : Intel ifort 18.0.1
 Compilation Date : Nov 13, 2020 13:58:25

 MPI Enabled;    Number of MPI Processes:       8
 OpenMP Enabled; Number of OpenMP Threads:      2

 MPI version: 3.1
 MPI library version: Intel(R) MPI Library 2018 Update 1 for Linux* OS


 Job TITLE        : Unstructured ScaRC-CG for 3D-cube with obstruction on 8 meshes
 Job ID string    : pressure_iteration3d_uscarc


 Grid Dimensions, Mesh     1

   Cells in the X Direction            16
   Cells in the Y Direction            16
   Cells in the Z Direction            16
   Number of Grid Cells              4096


 Physical Dimensions, Mesh     1

   Length (m)                       0.400
   Width  (m)                       0.400
   Height (m)                       0.400
   Initial Time Step (s)            0.022

 Grid Dimensions, Mesh     2

   Cells in the X Direction            16
   Cells in the Y Direction            16
   Cells in the Z Direction            16
   Number of Grid Cells              4096


 Physical Dimensions, Mesh     2

   Length (m)                       0.400
   Width  (m)                       0.400
   Height (m)                       0.400
   Initial Time Step (s)            0.022

 Grid Dimensions, Mesh     3

   Cells in the X Direction            16
   Cells in the Y Direction            16
   Cells in the Z Direction            16
   Number of Grid Cells              4096


 Physical Dimensions, Mesh     3

   Length (m)                       0.400
   Width  (m)                       0.400
   Height (m)                       0.400
   Initial Time Step (s)            0.022

 Grid Dimensions, Mesh     4

   Cells in the X Direction            16
   Cells in the Y Direction            16
   Cells in the Z Direction            16
   Number of Grid Cells              4096


 Physical Dimensions, Mesh     4

   Length (m)                       0.400
   Width  (m)                       0.400
   Height (m)                       0.400
   Initial Time Step (s)            0.022

 Grid Dimensions, Mesh     5

   Cells in the X Direction            16
   Cells in the Y Direction            16
   Cells in the Z Direction            16
   Number of Grid Cells              4096


 Physical Dimensions, Mesh     5

   Length (m)                       0.400
   Width  (m)                       0.400
   Height (m)                       0.400
   Initial Time Step (s)            0.022

 Grid Dimensions, Mesh     6

   Cells in the X Direction            16
   Cells in the Y Direction            16
   Cells in the Z Direction            16
   Number of Grid Cells              4096


 Physical Dimensions, Mesh     6

   Length (m)                       0.400
   Width  (m)                       0.400
   Height (m)                       0.400
   Initial Time Step (s)            0.022

 Grid Dimensions, Mesh     7

   Cells in the X Direction            16
   Cells in the Y Direction            16
   Cells in the Z Direction            16
   Number of Grid Cells              4096


 Physical Dimensions, Mesh     7

   Length (m)                       0.400
   Width  (m)                       0.400
   Height (m)                       0.400
   Initial Time Step (s)            0.022

 Grid Dimensions, Mesh     8

   Cells in the X Direction            16
   Cells in the Y Direction            16
   Cells in the Z Direction            16
   Number of Grid Cells              4096


 Physical Dimensions, Mesh     8

   Length (m)                       0.400
   Width  (m)                       0.400
   Height (m)                       0.400
   Initial Time Step (s)            0.022

Total Number of Grid Cells         32768


 Miscellaneous Parameters

   Simulation Start Time (s)          0.0
   Simulation End Time (s)            2.0
   Ambient Temperature (C):         20.00


 Mass Fraction Transformation Matrix to Convert Species Mixtures (Columns) to Primitive Species (Rows)

                         BACKGROU
   BACKGROUND            1.000000


 Primitive Species Information

   BACKGROUND
   Gas Species
   Molecular Weight (g/mol)            28.01340
   Ambient Density (kg/m^3)            1.165
   Enthalpy of Formation (J/kg)        0.00E+00


 Tracked (Lumped) Species Information

   BACKGROUND
   Molecular Weight (g/mol)            28.01340
   Ambient Density (kg/m^3)            1.165
   Initial Mass Fraction               1.000
   Enthalpy of Formation (J/kg)      0.00E+00

   Sub Species                    Mass Fraction     Mole Fraction
   BACKGROUND                     1.000000E+00      1.000000E+00
 
     Viscosity (kg/m/s) Ambient,  293 K:  1.74E-05
                                  500 K:  2.51E-05
                                 1000 K:  3.95E-05
                                 1500 K:  5.14E-05
   Therm. Cond. (W/m/K) Ambient,  293 K:  2.55E-02
                                  500 K:  3.67E-02
                                 1000 K:  5.78E-02
                                 1500 K:  7.52E-02
        Enthalpy (J/kg) Ambient,  293 K:  3.05E+05
                                  500 K:  5.19E+05
                                 1000 K:  1.04E+06
                                 1500 K:  1.56E+06
    Spec. Heat (J/kg/K) Ambient,  293 K:  1.04E+03
                                  500 K:  1.04E+03
                                 1000 K:  1.04E+03
                                 1500 K:  1.04E+03
   Diff. Coeff. (m^2/s) Ambient,  293 K:  1.99E-05
                                  500 K:  4.93E-05
                                 1000 K:  1.57E-04
                                 1500 K:  3.07E-04


 Material Information


 Surface Conditions

   0 INERT (DEFAULT)

   1 INFLOW1
     Normal Velocity (m/s)        -2.000
     BACKGROUND Mass Fraction         1.000

   2 INFLOW2
     Normal Velocity (m/s)        -2.000
     BACKGROUND Mass Fraction         1.000

   3 INFLOW3
     Normal Velocity (m/s)        -2.000
     BACKGROUND Mass Fraction         1.000

   4 OPEN
     Passive Vent to Atmosphere

   5 MIRROR
     Symmetry Plane

   6 INTERPOLATED

   7 PERIODIC

   8 HVAC

   9 MASSLESS TRACER

  10 DROPLET

  11 EVACUATION_OUTFLOW
     Normal Velocity (m/s)         0.000

  12 MASSLESS TARGET

  13 PERIODIC FLOW ONLY


 Cut-off Density and Temperature

    Minimum Temperature:   -10.0 C
    Maximum Temperature:  2726.8 C
    Minimum Density:  1.165E-01 kg/m3
    Maximum Density:  2.595E+00 kg/m3


 Device Coordinates

     1 Coords:      0.640000      0.000250      0.410000, Make: null, ID: u-vel, Quantity: U-VELOCITY
     2 Coords:      0.640000      0.000250      0.410000, Make: null, ID: v-vel, Quantity: V-VELOCITY
     3 Coords:      0.640000      0.000250      0.410000, Make: null, ID: w-vel, Quantity: W-VELOCITY
     4 Coords:      0.640000      0.000250      0.410000, Make: null, ID: pres, Quantity: PRESSURE
     5 Coords:      0.000250      0.000250      0.000250, Make: null, ID: error, Quantity: MAXIMUM VELOCITY ERROR
     6 Coords:      0.000250      0.000250      0.000250, Make: null, ID: iter, Quantity: PRESSURE ITERATIONS
     7 Coords:      0.000250      0.000250      0.000250, Make: null, ID: scarc-iter, Quantity: SCARC ITERATIONS
     8 Coords:      0.000250      0.000250      0.000250, Make: null, ID: scarc-rate, Quantity: SCARC CONVERGENCE RATE
     9 Coords:      0.000250      0.000250      0.000250, Make: null, ID: scarc-res, Quantity: SCARC RESIDUAL


 Slice File Information, Mesh     1

   Sampling Interval (s)             0.002

   1 Nodes:  16  16   0  16   0  16, Quantity: VELOCITY
   2 Nodes:  16  16   0  16   0  16, Quantity: U-VELOCITY
   3 Nodes:  16  16   0  16   0  16, Quantity: V-VELOCITY
   4 Nodes:  16  16   0  16   0  16, Quantity: W-VELOCITY
   5 Nodes:  16  16   0  16   0  16, Quantity: H
   6 Nodes:   0  16  16  16   0  16, Quantity: VELOCITY
   7 Nodes:   0  16  16  16   0  16, Quantity: U-VELOCITY
   8 Nodes:   0  16  16  16   0  16, Quantity: V-VELOCITY
   9 Nodes:   0  16  16  16   0  16, Quantity: W-VELOCITY
  10 Nodes:   0  16  16  16   0  16, Quantity: H
  11 Nodes:   0  16   0  16  16  16, Quantity: VELOCITY
  12 Nodes:   0  16   0  16  16  16, Quantity: U-VELOCITY
  13 Nodes:   0  16   0  16  16  16, Quantity: V-VELOCITY
  14 Nodes:   0  16   0  16  16  16, Quantity: W-VELOCITY
  15 Nodes:   0  16   0  16  16  16, Quantity: H


 Radiation Model Information

   Number of control angles  104
   Time step increment         3
   Angle increment             5
   Theta band N_phi   Solid angle
     1:        4     0.120
     2:       12     0.114
     3:       16     0.127
     4:       20     0.120
     5:       20     0.120
     6:       16     0.127
     7:       12     0.114
     8:        4     0.120


 USCARC Information

   Discretization             STRUCTURED
   Global solver                  KRYLOV
   Storage technique             COMPACT
   Preconditioner                PARDISO
   MKL precision                  DOUBLE
   Max iterations                   1000
   Stopping accuracy            0.10E-07
 
 

 Run Time Diagnostics

       Time Step       1   November 13, 2020  14:05:34
       Step Size:    0.264E-02 s, Total Time:      0.003 s
       Pressure Iterations:     10
       Maximum Velocity Error:  0.14E-16 on Mesh   1 at (  15  17   1)
       Maximum Pressure Error:  0.11E+06 on Mesh   1 at (  13  13  13)
       ScaRC: iterations    61, residual  0.48E-08, convergence rate   0.59E+00
       ---------------------------------------------------------------
       Mesh    1
       Max CFL number:  0.42E+00 at (  13,   1,  13)
       Max divergence:  0.76E-04 at (  16,  16,   2)
       Min divergence: -0.89E-04 at (  16,   1,  12)
       Max VN number:   0.53E-03 at (  12,  16,  16)
       Mesh    2
       Max CFL number:  0.44E+00 at (   4,   1,  13)
       Max divergence:  0.76E-04 at (   1,  16,   2)
       Min divergence: -0.89E-04 at (   1,   1,  12)
       Max VN number:   0.53E-03 at (  16,  16,  16)
       Mesh    3
       Max CFL number:  0.28E+00 at (  13,   4,   1)
       Max divergence:  0.76E-04 at (  16,   1,   2)
       Min divergence: -0.26E-04 at (   1,   1,  12)
       Max VN number:   0.53E-03 at (  16,  16,  16)
       Mesh    4
       Max CFL number:  0.28E+00 at (   4,   4,   1)
       Max divergence:  0.76E-04 at (   1,   1,   2)
       Min divergence:  0.53E-09 at (  16,  16,   1)
       Max VN number:   0.53E-03 at (  16,  16,  16)
       Mesh    5
       Max CFL number:  0.44E+00 at (  13,   1,   4)
       Max divergence:  0.10E-03 at (  16,   1,   5)
       Min divergence:  0.96E-06 at (  16,  16,   5)
       Max VN number:   0.53E-03 at (  16,  16,  16)
       Mesh    6
       Max CFL number:  0.45E+00 at (   4,   1,   4)
       Max divergence:  0.10E-03 at (   1,   1,   5)
       Min divergence:  0.22E-06 at (  16,  16,   1)
       Max VN number:   0.53E-03 at (  16,  16,  16)
       Mesh    7
       Max CFL number:  0.16E+00 at (   1,   4,   4)
       Max divergence:  0.37E-04 at (   1,   1,   5)
       Min divergence:  0.18E-06 at (  16,  16,   8)
       Max VN number:   0.53E-03 at (  16,  16,  16)
       Mesh    8
       Max CFL number:  0.18E-01 at (   7,   1,   1)
       Max divergence:  0.61E-05 at (   1,   1,  15)
       Min divergence:  0.59E-08 at (  16,  16,  16)
       Max VN number:   0.53E-03 at (  16,  16,  16)
 
       Time Step       2   November 13, 2020  14:05:34
       Step Size:    0.264E-02 s, Total Time:      0.005 s
       Pressure Iterations:      1
       Maximum Velocity Error:  0.14E-16 on Mesh   1 at (   2  17   1)
       Maximum Pressure Error:  0.26E+03 on Mesh   1 at (  13  13  13)
       ScaRC: iterations    57, residual  0.70E-08, convergence rate   0.61E+00
       ---------------------------------------------------------------
       Mesh    1
       Max CFL number:  0.40E+00 at (  13,   1,  13)
       Max divergence:  0.79E-04 at (  16,  16,   2)
       Min divergence: -0.85E-04 at (  16,   1,  12)
       Max VN number:   0.53E-03 at (  16,   1,  16)
       Mesh    2
       Max CFL number:  0.42E+00 at (   4,   1,  13)
       Max divergence:  0.79E-04 at (   1,  16,   2)
       Min divergence: -0.85E-04 at (   1,   1,  12)
       Max VN number:   0.53E-03 at (   1,   1,  16)
       Mesh    3
       Max CFL number:  0.27E+00 at (  13,   4,   1)
       Max divergence:  0.79E-04 at (  16,   1,   2)
       Min divergence: -0.26E-04 at (   1,   1,  12)
       Max VN number:   0.53E-03 at (   1,  16,  16)
       Mesh    4
       Max CFL number:  0.27E+00 at (   4,   4,   1)
       Max divergence:  0.79E-04 at (   1,   1,   2)
       Min divergence:  0.53E-09 at (  16,  16,   1)
       Max VN number:   0.53E-03 at (  16,  16,  16)
       Mesh    5
       Max CFL number:  0.42E+00 at (  13,   1,   4)
       Max divergence:  0.96E-04 at (  16,   1,   5)
       Min divergence:  0.96E-06 at (  16,  16,   5)
       Max VN number:   0.53E-03 at (  16,  16,  16)
       Mesh    6
       Max CFL number:  0.42E+00 at (   4,   1,   4)
       Max divergence:  0.96E-04 at (   1,   1,   5)
       Min divergence:  0.22E-06 at (  16,  16,   1)
       Max VN number:   0.53E-03 at (  16,  16,  16)
       Mesh    7
       Max CFL number:  0.15E+00 at (   1,   4,   4)
       Max divergence:  0.36E-04 at (   1,   1,   5)
       Min divergence:  0.18E-06 at (  16,  16,   8)
       Max VN number:   0.53E-03 at (  16,  16,  16)
       Mesh    8
       Max CFL number:  0.18E-01 at (   7,   1,   1)
       Max divergence:  0.61E-05 at (   1,   1,  15)
       Min divergence:  0.59E-08 at (  16,  16,  13)
       Max VN number:   0.53E-03 at (  16,  16,  16)
 
       Time Step       3   November 13, 2020  14:05:34
       Step Size:    0.264E-02 s, Total Time:      0.008 s
       Pressure Iterations:      1
       Maximum Velocity Error:  0.14E-16 on Mesh   1 at (   3  17   1)
       Maximum Pressure Error:  0.27E+03 on Mesh   1 at (  13  13  13)
       ScaRC: iterations    57, residual  0.73E-08, convergence rate   0.61E+00
       ---------------------------------------------------------------
       Mesh    1
       Max CFL number:  0.39E+00 at (  13,   1,  13)
       Max divergence:  0.82E-04 at (  16,  16,   2)
       Min divergence: -0.83E-04 at (  16,   1,  12)
       Max VN number:   0.53E-03 at (  16,   2,  16)
       Mesh    2
       Max CFL number:  0.40E+00 at (   4,   1,  13)
       Max divergence:  0.82E-04 at (   1,  16,   2)
       Min divergence: -0.83E-04 at (   1,   1,  12)
       Max VN number:   0.53E-03 at (   1,   2,  16)
       Mesh    3
       Max CFL number:  0.26E+00 at (  13,   4,   1)
       Max divergence:  0.82E-04 at (  16,   1,   2)
       Min divergence: -0.26E-04 at (   1,   1,  12)
       Max VN number:   0.53E-03 at (   1,  16,  16)
       Mesh    4
       Max CFL number:  0.27E+00 at (   4,   4,   1)
       Max divergence:  0.82E-04 at (   1,   1,   2)
       Min divergence:  0.53E-09 at (  16,  16,   1)
       Max VN number:   0.53E-03 at (  16,  16,  16)
       Mesh    5
       Max CFL number:  0.40E+00 at (  13,   1,   4)
       Max divergence:  0.93E-04 at (  16,   1,   5)
       Min divergence:  0.96E-06 at (  16,  16,   5)
       Max VN number:   0.53E-03 at (  16,  16,  16)
       Mesh    6
       Max CFL number:  0.41E+00 at (   4,   1,   4)
       Max divergence:  0.93E-04 at (   1,   1,   5)
       Min divergence:  0.23E-06 at (  16,  16,   1)
       Max VN number:   0.53E-03 at (  16,  16,  16)
       Mesh    7
       Max CFL number:  0.15E+00 at (   1,   4,   4)
       Max divergence:  0.36E-04 at (   1,   1,   5)
       Min divergence:  0.18E-06 at (  16,  16,   8)
       Max VN number:   0.53E-03 at (  16,  16,  16)
       Mesh    8
       Max CFL number:  0.18E-01 at (   7,   1,   1)
       Max divergence:  0.61E-05 at (   1,   1,  15)
       Min divergence:  0.59E-08 at (  16,  16,  13)
       Max VN number:   0.53E-03 at (  16,  16,  16)
 
       Time Step       4   November 13, 2020  14:05:35
       Step Size:    0.264E-02 s, Total Time:       0.01 s
       Pressure Iterations:      1
       Maximum Velocity Error:  0.14E-16 on Mesh   1 at (   9  17   1)
       Maximum Pressure Error:  0.28E+03 on Mesh   1 at (  13  13  13)
       ScaRC: iterations    57, residual  0.74E-08, convergence rate   0.61E+00
       ---------------------------------------------------------------
       Mesh    1
       Max CFL number:  0.38E+00 at (  13,   1,  13)
       Max divergence:  0.85E-04 at (  16,  16,   2)
       Min divergence: -0.79E-04 at (  16,   1,  12)
       Max VN number:   0.53E-03 at (  16,   2,  16)
       Mesh    2
       Max CFL number:  0.38E+00 at (   4,   1,  13)
       Max divergence:  0.85E-04 at (   1,  16,   2)
       Min divergence: -0.79E-04 at (   1,   1,  12)
       Max VN number:   0.53E-03 at (   1,   2,  16)
       Mesh    3
       Max CFL number:  0.25E+00 at (  13,   4,   1)
       Max divergence:  0.85E-04 at (  16,   1,   2)
       Min divergence: -0.26E-04 at (   1,   1,  12)
       Max VN number:   0.53E-03 at (   1,  16,  16)
       Mesh    4
       Max CFL number:  0.26E+00 at (   4,   4,   1)
       Max divergence:  0.86E-04 at (   1,   1,   2)
       Min divergence:  0.53E-09 at (  16,  16,   1)
       Max VN number:   0.53E-03 at (  16,  16,  16)
       Mesh    5
       Max CFL number:  0.39E+00 at (  13,   1,   4)
       Max divergence:  0.88E-04 at (  16,   1,   5)
       Min divergence:  0.96E-06 at (  16,  16,   5)
       Max VN number:   0.53E-03 at (  16,  16,  16)
       Mesh    6
       Max CFL number:  0.39E+00 at (   4,   1,   4)
       Max divergence:  0.88E-04 at (   1,   1,   5)
       Min divergence:  0.23E-06 at (  16,  16,   4)
       Max VN number:   0.53E-03 at (  16,  16,  16)
       Mesh    7
       Max CFL number:  0.15E+00 at (   1,   4,   4)
       Max divergence:  0.35E-04 at (   1,   1,   5)
       Min divergence:  0.18E-06 at (  16,  16,   8)
       Max VN number:   0.53E-03 at (  16,  16,  16)
       Mesh    8
       Max CFL number:  0.18E-01 at (   7,   1,   1)
       Max divergence:  0.62E-05 at (   1,   1,  15)
       Min divergence:  0.59E-08 at (  16,  16,  13)
       Max VN number:   0.53E-03 at (  16,  16,  16)
 
       Time Step       5   November 13, 2020  14:05:35
       Step Size:    0.290E-02 s, Total Time:       0.01 s
       Pressure Iterations:      1
       Maximum Velocity Error:  0.28E-16 on Mesh   1 at (   3   1  17)
       Maximum Pressure Error:  0.29E+03 on Mesh   1 at (  13  13  13)
       ScaRC: iterations    57, residual  0.75E-08, convergence rate   0.61E+00
       ---------------------------------------------------------------
       Mesh    1
       Max CFL number:  0.40E+00 at (  13,   1,  13)
       Max divergence:  0.88E-04 at (  16,  16,   2)
       Min divergence: -0.75E-04 at (  16,   1,  12)
       Max VN number:   0.59E-03 at (  16,   2,  16)
       Mesh    2
       Max CFL number:  0.41E+00 at (   4,   1,  13)
       Max divergence:  0.89E-04 at (   1,  16,   2)
       Min divergence: -0.76E-04 at (   1,   1,  12)
       Max VN number:   0.59E-03 at (   1,   2,  16)
       Mesh    3
       Max CFL number:  0.27E+00 at (  13,   4,   1)
       Max divergence:  0.89E-04 at (  16,   1,   2)
       Min divergence: -0.25E-04 at (   1,   1,  12)
       Max VN number:   0.59E-03 at (   1,  16,  16)
       Mesh    4
       Max CFL number:  0.28E+00 at (   4,   4,   1)
       Max divergence:  0.89E-04 at (   1,   1,   2)
       Min divergence:  0.53E-09 at (  16,  16,   1)
       Max VN number:   0.59E-03 at (  16,  16,  16)
       Mesh    5
       Max CFL number:  0.41E+00 at (  13,   1,   4)
       Max divergence:  0.84E-04 at (  16,   1,   5)
       Min divergence:  0.95E-06 at (  16,  16,   5)
       Max VN number:   0.59E-03 at (  16,  16,  16)
       Mesh    6
       Max CFL number:  0.41E+00 at (   4,   1,   4)
       Max divergence:  0.84E-04 at (   1,   1,   5)
       Min divergence:  0.23E-06 at (  16,  16,   4)
       Max VN number:   0.59E-03 at (  16,  16,  16)
       Mesh    7
       Max CFL number:  0.16E+00 at (   1,   4,   4)
       Max divergence:  0.35E-04 at (   1,   1,   5)
       Min divergence:  0.18E-06 at (  16,  16,   8)
       Max VN number:   0.59E-03 at (  16,  16,  16)
       Mesh    8
       Max CFL number:  0.20E-01 at (   7,   1,   1)
       Max divergence:  0.62E-05 at (   1,   1,  15)
       Min divergence:  0.59E-08 at (  16,  16,  13)
       Max VN number:   0.59E-03 at (  16,  16,  16)
 
       Time Step       6   November 13, 2020  14:05:35
       Step Size:    0.290E-02 s, Total Time:       0.02 s
       Pressure Iterations:      1
       Maximum Velocity Error:  0.14E-16 on Mesh   1 at (   1  17   1)
       Maximum Pressure Error:  0.29E+03 on Mesh   1 at (  13  13  13)
       ScaRC: iterations    57, residual  0.77E-08, convergence rate   0.61E+00
       ---------------------------------------------------------------
       Mesh    1
       Max CFL number:  0.38E+00 at (  13,   1,  13)
       Max divergence:  0.92E-04 at (  16,  16,   2)
       Min divergence: -0.72E-04 at (  16,   1,  12)
       Max VN number:   0.59E-03 at (  16,   2,  16)
       Mesh    2
       Max CFL number:  0.39E+00 at (   4,   1,  13)
       Max divergence:  0.92E-04 at (   1,  16,   2)
       Min divergence: -0.72E-04 at (   1,   1,  12)
       Max VN number:   0.59E-03 at (   1,   2,  16)
       Mesh    3
       Max CFL number:  0.26E+00 at (  13,   4,   1)
       Max divergence:  0.93E-04 at (  16,   1,   2)
       Min divergence: -0.25E-04 at (   1,   1,  12)
       Max VN number:   0.59E-03 at (   1,  16,  16)
       Mesh    4
       Max CFL number:  0.27E+00 at (   4,   4,   1)
       Max divergence:  0.93E-04 at (   1,   1,   2)
       Min divergence:  0.53E-09 at (  16,  16,   1)
       Max VN number:   0.59E-03 at (  16,  16,  16)
       Mesh    5
       Max CFL number:  0.39E+00 at (  13,   1,   4)
       Max divergence:  0.79E-04 at (  16,   1,   5)
       Min divergence:  0.95E-06 at (  16,  16,   5)
       Max VN number:   0.59E-03 at (  16,  16,  16)
       Mesh    6
       Max CFL number:  0.39E+00 at (   4,   1,   4)
       Max divergence:  0.79E-04 at (   1,   1,   5)
       Min divergence:  0.23E-06 at (  16,  16,   4)
       Max VN number:   0.59E-03 at (  16,  16,  16)
       Mesh    7
       Max CFL number:  0.16E+00 at (   1,   4,   4)
       Max divergence:  0.35E-04 at (   1,   1,   5)
       Min divergence:  0.18E-06 at (  16,  16,   8)
       Max VN number:   0.59E-03 at (  16,  16,  16)
       Mesh    8
       Max CFL number:  0.20E-01 at (   7,   1,   1)
       Max divergence:  0.62E-05 at (   1,   1,  15)
       Min divergence:  0.59E-08 at (  16,  16,  13)
       Max VN number:   0.59E-03 at (  16,  16,  16)
 
       Time Step       7   November 13, 2020  14:05:35
       Step Size:    0.319E-02 s, Total Time:       0.02 s
       Pressure Iterations:      1
       Maximum Velocity Error:  0.28E-16 on Mesh   1 at (  10  17   8)
       Maximum Pressure Error:  0.31E+03 on Mesh   1 at (  13  13  13)
       ScaRC: iterations    57, residual  0.78E-08, convergence rate   0.61E+00
       ---------------------------------------------------------------
       Mesh    1
       Max CFL number:  0.41E+00 at (  13,   1,  13)
       Max divergence:  0.94E-04 at (  16,  16,   2)
       Min divergence: -0.68E-04 at (  16,   1,  12)
       Max VN number:   0.65E-03 at (  16,   2,  16)
       Mesh    2
       Max CFL number:  0.41E+00 at (   4,   1,  13)
       Max divergence:  0.95E-04 at (   1,  16,   2)
       Min divergence: -0.68E-04 at (   1,   1,  12)
       Max VN number:   0.65E-03 at (   1,   2,  16)
       Mesh    3
       Max CFL number:  0.28E+00 at (  13,   4,   1)
       Max divergence:  0.95E-04 at (  16,   1,   2)
       Min divergence: -0.25E-04 at (   1,   1,  12)
       Max VN number:   0.65E-03 at (   1,  16,  16)
       Mesh    4
       Max CFL number:  0.29E+00 at (   4,   4,   1)
       Max divergence:  0.95E-04 at (   1,   1,   2)
       Min divergence:  0.52E-09 at (  16,  16,   1)
       Max VN number:   0.65E-03 at (  16,  16,  16)
       Mesh    5
       Max CFL number:  0.41E+00 at (  13,   1,   4)
       Max divergence:  0.75E-04 at (  16,   2,   5)
       Min divergence:  0.95E-06 at (  16,  16,   5)
       Max VN number:   0.65E-03 at (  16,  16,  16)
       Mesh    6
       Max CFL number:  0.41E+00 at (   4,   1,   4)
       Max divergence:  0.75E-04 at (   1,   2,   5)
       Min divergence:  0.24E-06 at (  16,  16,   4)
       Max VN number:   0.65E-03 at (  16,  16,  16)
       Mesh    7
       Max CFL number:  0.17E+00 at (   1,   4,   4)
       Max divergence:  0.34E-04 at (   1,   1,   5)
       Min divergence:  0.19E-06 at (  16,  16,   9)
       Max VN number:   0.65E-03 at (  16,  16,  16)
       Mesh    8
       Max CFL number:  0.22E-01 at (   7,   1,   1)
       Max divergence:  0.62E-05 at (   1,   1,  15)
       Min divergence:  0.60E-08 at (  16,  16,  13)
       Max VN number:   0.65E-03 at (  16,  16,  16)
 
       Time Step       8   November 13, 2020  14:05:36
       Step Size:    0.319E-02 s, Total Time:       0.02 s
       Pressure Iterations:      1
       Maximum Velocity Error:  0.14E-16 on Mesh   1 at (   1  17   1)
       Maximum Pressure Error:  0.32E+03 on Mesh   1 at (  13  13  13)
       ScaRC: iterations    57, residual  0.80E-08, convergence rate   0.61E+00
       ---------------------------------------------------------------
       Mesh    1
       Max CFL number:  0.39E+00 at (  13,   1,  13)
       Max divergence:  0.96E-04 at (  16,  16,   2)
       Min divergence: -0.64E-04 at (  16,   2,  12)
       Max VN number:   0.65E-03 at (  16,   2,  16)
       Mesh    2
       Max CFL number:  0.39E+00 at (   4,   1,  13)
       Max divergence:  0.96E-04 at (   1,  16,   2)
       Min divergence: -0.64E-04 at (   1,   2,  12)
       Max VN number:   0.65E-03 at (   1,   2,  16)
       Mesh    3
       Max CFL number:  0.27E+00 at (  13,   4,   1)
       Max divergence:  0.97E-04 at (  16,   1,   2)
       Min divergence: -0.25E-04 at (   1,   1,  12)
       Max VN number:   0.65E-03 at (   1,  16,  16)
       Mesh    4
       Max CFL number:  0.28E+00 at (   4,   4,   1)
       Max divergence:  0.97E-04 at (   1,   1,   2)
       Min divergence:  0.52E-09 at (  16,  16,   1)
       Max VN number:   0.65E-03 at (  16,  16,  16)
       Mesh    5
       Max CFL number:  0.39E+00 at (  13,   1,   4)
       Max divergence:  0.75E-04 at (  16,   2,   5)
       Min divergence:  0.77E-06 at (  13,   1,   1)
       Max VN number:   0.65E-03 at (  16,  16,  16)
       Mesh    6
       Max CFL number:  0.39E+00 at (   4,   1,   4)
       Max divergence:  0.75E-04 at (   1,   2,   5)
       Min divergence:  0.24E-06 at (  16,  16,   4)
       Max VN number:   0.65E-03 at (  16,  16,  16)
       Mesh    7
       Max CFL number:  0.17E+00 at (   1,   4,   4)
       Max divergence:  0.34E-04 at (   1,   1,   5)
       Min divergence:  0.19E-06 at (  16,  16,   9)
       Max VN number:   0.65E-03 at (  16,  16,  16)
       Mesh    8
       Max CFL number:  0.22E-01 at (   7,   1,   1)
       Max divergence:  0.62E-05 at (   1,   1,  15)
       Min divergence:  0.60E-08 at (  16,  16,  13)
       Max VN number:   0.65E-03 at (  16,  16,  16)
 
       Time Step       9   November 13, 2020  14:05:36
       Step Size:    0.351E-02 s, Total Time:       0.03 s
       Pressure Iterations:      1
       Maximum Velocity Error:  0.14E-16 on Mesh   1 at (   5  17   1)
       Maximum Pressure Error:  0.33E+03 on Mesh   1 at (  13  13  13)
       ScaRC: iterations    57, residual  0.82E-08, convergence rate   0.61E+00
       ---------------------------------------------------------------
       Mesh    1
       Max CFL number:  0.41E+00 at (  13,   1,  13)
       Max divergence:  0.97E-04 at (  16,  16,   2)
       Min divergence: -0.64E-04 at (  16,   2,  12)
       Max VN number:   0.71E-03 at (  16,   2,  16)
       Mesh    2
       Max CFL number:  0.41E+00 at (   4,   1,  13)
       Max divergence:  0.98E-04 at (   1,  16,   2)
       Min divergence: -0.64E-04 at (   1,   2,  12)
       Max VN number:   0.71E-03 at (   1,   3,  16)
       Mesh    3
       Max CFL number:  0.29E+00 at (  13,   4,   1)
       Max divergence:  0.98E-04 at (  16,   1,   2)
       Min divergence: -0.24E-04 at (   1,   1,  12)
       Max VN number:   0.71E-03 at (   1,  16,  16)
       Mesh    4
       Max CFL number:  0.30E+00 at (   4,   4,   1)
       Max divergence:  0.99E-04 at (   1,   1,   2)
       Min divergence:  0.52E-09 at (  16,  16,   1)
       Max VN number:   0.71E-03 at (  16,  16,  16)
       Mesh    5
       Max CFL number:  0.41E+00 at (  13,   1,   4)
       Max divergence:  0.75E-04 at (  16,   2,   5)
       Min divergence: -0.95E-06 at (  13,   1,   2)
       Max VN number:   0.71E-03 at (  16,  16,  16)
       Mesh    6
       Max CFL number:  0.41E+00 at (   4,   1,   4)
       Max divergence:  0.75E-04 at (   1,   2,   5)
       Min divergence: -0.15E-05 at (   4,   1,   2)
       Max VN number:   0.71E-03 at (  16,  16,  16)
       Mesh    7
       Max CFL number:  0.18E+00 at (   1,   4,   4)
       Max divergence:  0.33E-04 at (   1,   1,   5)
       Min divergence:  0.19E-06 at (  16,  16,   9)
       Max VN number:   0.71E-03 at (  16,  16,  16)
       Mesh    8
       Max CFL number:  0.24E-01 at (   7,   1,   1)
       Max divergence:  0.62E-05 at (   1,   1,  15)
       Min divergence:  0.60E-08 at (  16,  16,  13)
       Max VN number:   0.71E-03 at (  16,  16,  16)
 
       Time Step      10   November 13, 2020  14:05:36
       Step Size:    0.351E-02 s, Total Time:       0.03 s
       Pressure Iterations:      1
       Maximum Velocity Error:  0.28E-16 on Mesh   1 at (  11  17   9)
       Maximum Pressure Error:  0.34E+03 on Mesh   1 at (  13  13  13)
       ScaRC: iterations    57, residual  0.84E-08, convergence rate   0.61E+00
       ---------------------------------------------------------------
       Mesh    1
       Max CFL number:  0.40E+00 at (  13,   1,  13)
       Max divergence:  0.98E-04 at (  16,  16,   2)
       Min divergence: -0.64E-04 at (  16,   2,  12)
       Max VN number:   0.71E-03 at (  16,   3,  16)
       Mesh    2
       Max CFL number:  0.40E+00 at (   4,   1,  13)
       Max divergence:  0.98E-04 at (   1,  16,   2)
       Min divergence: -0.64E-04 at (   1,   2,  12)
       Max VN number:   0.71E-03 at (   1,   3,  16)
       Mesh    3
       Max CFL number:  0.28E+00 at (  13,   4,   1)
       Max divergence:  0.99E-04 at (  16,   1,   2)
       Min divergence: -0.24E-04 at (   1,   1,  12)
       Max VN number:   0.71E-03 at (   1,  16,  16)
       Mesh    4
       Max CFL number:  0.29E+00 at (   4,   4,   1)
       Max divergence:  0.99E-04 at (   1,   1,   2)
       Min divergence:  0.52E-09 at (  16,  16,   1)
       Max VN number:   0.71E-03 at (  16,  16,  16)
       Mesh    5
       Max CFL number:  0.40E+00 at (  13,   1,   4)
       Max divergence:  0.74E-04 at (  16,   2,   5)
       Min divergence: -0.26E-05 at (  13,   1,   2)
       Max VN number:   0.71E-03 at (  16,  16,  16)
       Mesh    6
       Max CFL number:  0.40E+00 at (   4,   1,   4)
       Max divergence:  0.74E-04 at (   1,   2,   5)
       Min divergence: -0.31E-05 at (   4,   1,   2)
       Max VN number:   0.71E-03 at (  16,  16,  16)
       Mesh    7
       Max CFL number:  0.18E+00 at (   1,   4,   4)
       Max divergence:  0.32E-04 at (   1,   1,   5)
       Min divergence:  0.19E-06 at (  16,  16,   9)
       Max VN number:   0.71E-03 at (  16,  16,  16)
       Mesh    8
       Max CFL number:  0.25E-01 at (   7,   1,   1)
       Max divergence:  0.62E-05 at (   1,   1,  15)
       Min divergence:  0.60E-08 at (  16,  16,  13)
       Max VN number:   0.71E-03 at (  16,  16,  16)
 
       Time Step      20   November 13, 2020  14:05:38
       Step Size:    0.468E-02 s, Total Time:       0.07 s
       Pressure Iterations:      1
       Maximum Velocity Error:  0.28E-16 on Mesh   2 at (   6  17   5)
       Maximum Pressure Error:  0.33E+03 on Mesh   2 at (   4  13  13)
       ScaRC: iterations    58, residual  0.54E-08, convergence rate   0.61E+00
       ---------------------------------------------------------------
       Mesh    1
       Max CFL number:  0.41E+00 at (  16,   3,  13)
       Max divergence:  0.83E-04 at (  16,  16,   2)
       Min divergence: -0.53E-04 at (  16,   3,  12)
       Max VN number:   0.94E-03 at (  16,   4,  16)
       Mesh    2
       Max CFL number:  0.43E+00 at (   4,   3,  16)
       Max divergence:  0.83E-04 at (   1,  16,   2)
       Min divergence: -0.53E-04 at (   1,   3,  12)
       Max VN number:   0.94E-03 at (   1,   4,  16)
       Mesh    3
       Max CFL number:  0.28E+00 at (   1,   4,  13)
       Max divergence:  0.84E-04 at (  16,   1,   2)
       Min divergence: -0.31E-04 at (   1,   1,  12)
       Max VN number:   0.94E-03 at (   1,   1,  16)
       Mesh    4
       Max CFL number:  0.25E+00 at (   3,   3,   3)
       Max divergence:  0.84E-04 at (   1,   1,   2)
       Min divergence: -0.49E-05 at (   5,   5,   2)
       Max VN number:   0.94E-03 at (  16,  16,  16)
       Mesh    5
       Max CFL number:  0.43E+00 at (  16,   3,   4)
       Max divergence:  0.62E-04 at (  16,   3,   5)
       Min divergence: -0.92E-05 at (  13,   2,   3)
       Max VN number:   0.94E-03 at (  16,  16,  16)
       Mesh    6
       Max CFL number:  0.43E+00 at (   1,   3,   4)
       Max divergence:  0.62E-04 at (   1,   3,   5)
       Min divergence: -0.11E-04 at (   5,   1,   4)
       Max VN number:   0.94E-03 at (  16,  16,  16)
       Mesh    7
       Max CFL number:  0.27E+00 at (   1,   4,   4)
       Max divergence:  0.36E-04 at (   2,   1,   5)
       Min divergence:  0.21E-06 at (  16,  16,   8)
       Max VN number:   0.94E-03 at (  16,  16,  16)
       Mesh    8
       Max CFL number:  0.32E-01 at (   7,   1,   1)
       Max divergence:  0.65E-05 at (   1,   1,  15)
       Min divergence:  0.62E-08 at (  16,  16,  12)
       Max VN number:   0.94E-03 at (  16,  16,  16)
 
       Time Step      30   November 13, 2020  14:05:40
       Step Size:    0.468E-02 s, Total Time:       0.12 s
       Pressure Iterations:      1
       Maximum Velocity Error:  0.28E-16 on Mesh   1 at (   4  17   6)
       Maximum Pressure Error:  0.65E+03 on Mesh   2 at (   4  13  13)
       ScaRC: iterations    58, residual  0.63E-08, convergence rate   0.60E+00
       ---------------------------------------------------------------
       Mesh    1
       Max CFL number:  0.40E+00 at (  15,   4,  13)
       Max divergence:  0.47E-04 at (  13,  15,   2)
       Min divergence: -0.47E-04 at (  16,   4,  12)
       Max VN number:   0.94E-03 at (  16,   6,  16)
       Mesh    2
       Max CFL number:  0.40E+00 at (   4,   4,  15)
       Max divergence:  0.50E-04 at (   4,  15,   2)
       Min divergence: -0.47E-04 at (   1,   5,  12)
       Max VN number:   0.94E-03 at (   1,   6,  16)
       Mesh    3
       Max CFL number:  0.36E+00 at (   1,   4,  13)
       Max divergence:  0.51E-04 at (  15,   4,   2)
       Min divergence: -0.43E-04 at (   2,   1,  12)
       Max VN number:   0.94E-03 at (   2,   1,  16)
       Mesh    4
       Max CFL number:  0.19E+00 at (   4,   4,   1)
       Max divergence:  0.50E-04 at (   1,   4,   2)
       Min divergence: -0.11E-04 at (   5,   5,   2)
       Max VN number:   0.94E-03 at (  16,  16,  16)
       Mesh    5
       Max CFL number:  0.41E+00 at (  15,   4,   4)
       Max divergence:  0.56E-04 at (  16,   5,   5)
       Min divergence: -0.27E-04 at (  16,   1,   6)
       Max VN number:   0.94E-03 at (  16,  16,  16)
       Mesh    6
       Max CFL number:  0.41E+00 at (   4,   4,   2)
       Max divergence:  0.56E-04 at (   1,   5,   5)
       Min divergence: -0.27E-04 at (   1,   1,   6)
       Max VN number:   0.94E-03 at (  16,  16,  16)
       Mesh    7
       Max CFL number:  0.35E+00 at (   1,   4,   4)
       Max divergence:  0.48E-04 at (   2,   1,   5)
       Min divergence: -0.14E-05 at (   1,   4,   1)
       Max VN number:   0.94E-03 at (  16,  16,  16)
       Mesh    8
       Max CFL number:  0.33E-01 at (   1,   1,   7)
       Max divergence:  0.67E-05 at (   1,   1,  15)
       Min divergence:  0.54E-08 at (  16,  16,   1)
       Max VN number:   0.94E-03 at (  16,  16,  16)
 
       Time Step      40   November 13, 2020  14:05:43
       Step Size:    0.468E-02 s, Total Time:       0.17 s
       Pressure Iterations:      1
       Maximum Velocity Error:  0.14E-16 on Mesh   1 at (   1  17   1)
       Maximum Pressure Error:  0.11E+04 on Mesh   1 at (  13  13  13)
       ScaRC: iterations    58, residual  0.66E-08, convergence rate   0.60E+00
       ---------------------------------------------------------------
       Mesh    1
       Max CFL number:  0.41E+00 at (   1,  13,  16)
       Max divergence:  0.36E-04 at (  15,  13,   2)
       Min divergence: -0.50E-04 at (   3,  16,  12)
       Max VN number:   0.94E-03 at (   4,  16,  16)
       Mesh    2
       Max CFL number:  0.39E+00 at (   4,   6,  13)
       Max divergence:  0.41E-04 at (   5,   2,  14)
       Min divergence: -0.46E-04 at (   1,   6,  12)
       Max VN number:   0.94E-03 at (   1,   7,  16)
       Mesh    3
       Max CFL number:  0.41E+00 at (   1,   1,  13)
       Max divergence:  0.41E-04 at (  15,   4,   2)
       Min divergence: -0.50E-04 at (   3,   1,  12)
       Max VN number:   0.94E-03 at (   4,   1,  16)
       Mesh    4
       Max CFL number:  0.19E+00 at (   4,   3,   1)
       Max divergence:  0.42E-04 at (   3,   4,   2)
       Min divergence: -0.12E-04 at (   1,   6,   2)
       Max VN number:   0.94E-03 at (  16,  16,  16)
       Mesh    5
       Max CFL number:  0.41E+00 at (   1,  13,   1)
       Max divergence:  0.56E-04 at (   3,  16,   5)
       Min divergence: -0.33E-04 at (  16,   1,   6)
       Max VN number:   0.94E-03 at (  16,  16,  16)
       Mesh    6
       Max CFL number:  0.40E+00 at (   4,   6,   4)
       Max divergence:  0.52E-04 at (   3,   6,   5)
       Min divergence: -0.36E-04 at (   5,   2,   3)
       Max VN number:   0.94E-03 at (  16,  16,  16)
       Mesh    7
       Max CFL number:  0.41E+00 at (   1,   4,   1)
       Max divergence:  0.55E-04 at (   3,   1,   5)
       Min divergence: -0.43E-05 at (   1,   5,   3)
       Max VN number:   0.94E-03 at (  16,  16,  16)
       Mesh    8
       Max CFL number:  0.34E-01 at (   1,   1,   8)
       Max divergence:  0.68E-05 at (   1,   1,  15)
       Min divergence:  0.47E-08 at (  16,  16,   1)
       Max VN number:   0.94E-03 at (  16,  16,  16)
 
       Time Step      50   November 13, 2020  14:05:45
       Step Size:    0.468E-02 s, Total Time:       0.21 s
       Pressure Iterations:      1
       Maximum Velocity Error:  0.28E-16 on Mesh   1 at (  12   2  17)
       Maximum Pressure Error:  0.90E+03 on Mesh   3 at (  13   4  13)
       ScaRC: iterations    58, residual  0.82E-08, convergence rate   0.61E+00
       ---------------------------------------------------------------
       Mesh    1
       Max CFL number:  0.46E+00 at (   1,  13,  13)
       Max divergence:  0.65E-04 at (  14,  14,   2)
       Min divergence: -0.52E-04 at (   4,  16,  12)
       Max VN number:   0.94E-03 at (   5,  16,  16)
       Mesh    2
       Max CFL number:  0.40E+00 at (   4,   7,  13)
       Max divergence:  0.67E-04 at (   3,  14,   2)
       Min divergence: -0.37E-04 at (   3,   7,  12)
       Max VN number:   0.94E-03 at (   1,   8,  16)
       Mesh    3
       Max CFL number:  0.47E+00 at (   1,   4,  13)
       Max divergence:  0.68E-04 at (  14,   3,   2)
       Min divergence: -0.52E-04 at (   4,   1,  12)
       Max VN number:   0.94E-03 at (   5,   1,  16)
       Mesh    4
       Max CFL number:  0.21E+00 at (   4,   2,   3)
       Max divergence:  0.70E-04 at (   3,   3,   2)
       Min divergence: -0.68E-05 at (   5,   5,   3)
       Max VN number:   0.94E-03 at (  16,  16,  16)
       Mesh    5
       Max CFL number:  0.47E+00 at (   1,  13,   4)
       Max divergence:  0.57E-04 at (   5,  16,   5)
       Min divergence: -0.35E-04 at (  16,   1,   6)
       Max VN number:   0.94E-03 at (  16,  16,  16)
       Mesh    6
       Max CFL number:  0.41E+00 at (   4,   7,   4)
       Max divergence:  0.46E-04 at (   1,   7,   6)
       Min divergence: -0.41E-04 at (   5,   3,   3)
       Max VN number:   0.94E-03 at (  16,  16,  16)
       Mesh    7
       Max CFL number:  0.47E+00 at (   1,   4,   4)
       Max divergence:  0.57E-04 at (   5,   1,   5)
       Min divergence: -0.13E-04 at (   1,   5,   4)
       Max VN number:   0.94E-03 at (  16,  16,  16)
       Mesh    8
       Max CFL number:  0.37E-01 at (   1,   1,   8)
       Max divergence:  0.73E-05 at (   1,   1,  15)
       Min divergence:  0.69E-08 at (  16,  16,   8)
       Max VN number:   0.94E-03 at (  16,  16,  16)
 
       Time Step      60   November 13, 2020  14:05:47
       Step Size:    0.407E-02 s, Total Time:       0.26 s
       Pressure Iterations:      1
       Maximum Velocity Error:  0.28E-16 on Mesh   5 at (  17   2   5)
       Maximum Pressure Error:  0.25E+04 on Mesh   1 at (  13  13  13)
       ScaRC: iterations    58, residual  0.94E-08, convergence rate   0.61E+00
       ---------------------------------------------------------------
       Mesh    1
       Max CFL number:  0.43E+00 at (   1,  13,  13)
       Max divergence:  0.10E-03 at (  16,  16,   2)
       Min divergence: -0.50E-04 at (   6,  16,  12)
       Max VN number:   0.82E-03 at (   7,  16,  16)
       Mesh    2
       Max CFL number:  0.41E+00 at (   3,   4,  14)
       Max divergence:  0.10E-03 at (   1,  16,   2)
       Min divergence: -0.32E-04 at (   1,   7,  11)
       Max VN number:   0.82E-03 at (   1,   8,  16)
       Mesh    3
       Max CFL number:  0.43E+00 at (   1,   4,  13)
       Max divergence:  0.10E-03 at (  16,   1,   2)
       Min divergence: -0.50E-04 at (   6,   1,  12)
       Max VN number:   0.82E-03 at (   7,   1,  16)
       Mesh    4
       Max CFL number:  0.32E+00 at (   4,   4,   1)
       Max divergence:  0.10E-03 at (   1,   1,   2)
       Min divergence: -0.46E-05 at (   7,   3,   3)
       Max VN number:   0.82E-03 at (  16,  16,  16)
       Mesh    5
       Max CFL number:  0.43E+00 at (   6,  13,   4)
       Max divergence:  0.60E-04 at (   5,  16,   6)
       Min divergence: -0.39E-04 at (  14,   4,   5)
       Max VN number:   0.82E-03 at (  16,  16,  16)
       Mesh    6
       Max CFL number:  0.42E+00 at (   3,   4,   3)
       Max divergence:  0.51E-04 at (   1,   8,   6)
       Min divergence: -0.46E-04 at (   3,   4,   4)
       Max VN number:   0.82E-03 at (  16,  16,  16)
       Mesh    7
       Max CFL number:  0.45E+00 at (   6,   4,   4)
       Max divergence:  0.60E-04 at (   5,   1,   6)
       Min divergence: -0.21E-04 at (   1,   1,   6)
       Max VN number:   0.82E-03 at (  16,  16,  16)
       Mesh    8
       Max CFL number:  0.35E-01 at (   1,   8,   1)
       Max divergence:  0.78E-05 at (   1,   1,  15)
       Min divergence:  0.82E-08 at (  16,  16,  13)
       Max VN number:   0.82E-03 at (  16,  16,  16)
 
       Time Step      70   November 13, 2020  14:05:49
       Step Size:    0.407E-02 s, Total Time:       0.30 s
       Pressure Iterations:      1
       Maximum Velocity Error:  0.28E-16 on Mesh   1 at (  15  17  11)
       Maximum Pressure Error:  0.28E+04 on Mesh   1 at (  13  13  13)
       ScaRC: iterations    59, residual  0.57E-08, convergence rate   0.60E+00
       ---------------------------------------------------------------
       Mesh    1
       Max CFL number:  0.45E+00 at (   7,  13,  13)
       Max divergence:  0.14E-03 at (  16,  16,   2)
       Min divergence: -0.50E-04 at (   6,  16,  11)
       Max VN number:   0.82E-03 at (   8,  16,  16)
       Mesh    2
       Max CFL number:  0.40E+00 at (   3,   6,  14)
       Max divergence:  0.14E-03 at (   1,  16,   2)
       Min divergence: -0.37E-04 at (   1,   7,  13)
       Max VN number:   0.82E-03 at (   2,   9,  16)
       Mesh    3
       Max CFL number:  0.46E+00 at (   7,   4,  13)
       Max divergence:  0.14E-03 at (  16,   1,   2)
       Min divergence: -0.50E-04 at (   6,   1,  11)
       Max VN number:   0.82E-03 at (   8,   1,  16)
       Mesh    4
       Max CFL number:  0.38E+00 at (   4,   4,   1)
       Max divergence:  0.14E-03 at (   1,   1,   2)
       Min divergence: -0.62E-05 at (   6,   5,   4)
       Max VN number:   0.82E-03 at (  16,  16,  16)
       Mesh    5
       Max CFL number:  0.46E+00 at (   7,  13,   4)
       Max divergence:  0.67E-04 at (   7,  16,   6)
       Min divergence: -0.39E-04 at (  14,   5,   5)
       Max VN number:   0.82E-03 at (  16,  16,  16)
       Mesh    6
       Max CFL number:  0.45E+00 at (   3,   5,   3)
       Max divergence:  0.54E-04 at (   1,   9,   6)
       Min divergence: -0.50E-04 at (   3,   5,   4)
       Max VN number:   0.82E-03 at (  16,  16,  16)
       Mesh    7
       Max CFL number:  0.47E+00 at (   7,   4,   4)
       Max divergence:  0.66E-04 at (   7,   1,   6)
       Min divergence: -0.26E-04 at (   3,   5,   3)
       Max VN number:   0.82E-03 at (  16,  16,  16)
       Mesh    8
       Max CFL number:  0.44E-01 at (   1,   1,   8)
       Max divergence:  0.98E-05 at (   1,   1,  15)
       Min divergence:  0.10E-07 at (  16,  16,  16)
       Max VN number:   0.82E-03 at (  16,  16,  16)
 
       Time Step      80   November 13, 2020  14:05:52
       Step Size:    0.353E-02 s, Total Time:       0.34 s
       Pressure Iterations:      1
       Maximum Velocity Error:  0.56E-16 on Mesh   1 at (  17   5  13)
       Maximum Pressure Error:  0.26E+04 on Mesh   1 at (  13  13  13)
       ScaRC: iterations    59, residual  0.70E-08, convergence rate   0.60E+00
       ---------------------------------------------------------------
       Mesh    1
       Max CFL number:  0.43E+00 at (  14,   5,  14)
       Max divergence:  0.16E-03 at (  16,  16,   2)
       Min divergence: -0.54E-04 at (   7,  16,  11)
       Max VN number:   0.71E-03 at (   1,  13,  16)
       Mesh    2
       Max CFL number:  0.46E+00 at (   3,   5,  14)
       Max divergence:  0.16E-03 at (   1,  16,   2)
       Min divergence: -0.42E-04 at (   1,   8,  13)
       Max VN number:   0.71E-03 at (   2,  10,  16)
       Mesh    3
       Max CFL number:  0.39E+00 at (   6,   4,  14)
       Max divergence:  0.16E-03 at (  16,   1,   2)
       Min divergence: -0.54E-04 at (   7,   1,  11)
       Max VN number:   0.71E-03 at (   2,   4,  16)
       Mesh    4
       Max CFL number:  0.34E+00 at (   4,   4,   1)
       Max divergence:  0.16E-03 at (   1,   1,   2)
       Min divergence: -0.98E-05 at (   6,   5,   4)
       Max VN number:   0.71E-03 at (  16,  16,  16)
       Mesh    5
       Max CFL number:  0.45E+00 at (  14,   5,   3)
       Max divergence:  0.70E-04 at (   8,  16,   6)
       Min divergence: -0.44E-04 at (  14,   5,   4)
       Max VN number:   0.71E-03 at (  16,   1,  16)
       Mesh    6
       Max CFL number:  0.49E+00 at (   3,   5,   3)
       Max divergence:  0.56E-04 at (   2,  10,   6)
       Min divergence: -0.53E-04 at (   3,   5,   4)
       Max VN number:   0.71E-03 at (  16,  16,  16)
       Mesh    7
       Max CFL number:  0.39E+00 at (   6,   4,   3)
       Max divergence:  0.69E-04 at (   8,   1,   6)
       Min divergence: -0.31E-04 at (   4,   5,   3)
       Max VN number:   0.71E-03 at (  16,  16,  16)
       Mesh    8
       Max CFL number:  0.44E-01 at (   1,   1,   8)
       Max divergence:  0.11E-04 at (   1,   1,  13)
       Min divergence:  0.12E-07 at (  16,  16,  16)
       Max VN number:   0.71E-03 at (  16,  16,  16)
 
       Time Step      90   November 13, 2020  14:05:54
       Step Size:    0.353E-02 s, Total Time:       0.37 s
       Pressure Iterations:      1
       Maximum Velocity Error:  0.56E-16 on Mesh   1 at (  12   4  17)
       Maximum Pressure Error:  0.24E+04 on Mesh   5 at (  13  13   2)
       ScaRC: iterations    59, residual  0.79E-08, convergence rate   0.60E+00
       ---------------------------------------------------------------
       Mesh    1
       Max CFL number:  0.43E+00 at (  14,   5,  14)
       Max divergence:  0.17E-03 at (  16,  16,   2)
       Min divergence: -0.58E-04 at (   8,  16,  11)
       Max VN number:   0.71E-03 at (  13,   1,  16)
       Mesh    2
       Max CFL number:  0.37E+00 at (   1,   8,  13)
       Max divergence:  0.17E-03 at (   1,  16,   2)
       Min divergence: -0.51E-04 at (   1,   8,  12)
       Max VN number:   0.71E-03 at (   3,   3,  16)
       Mesh    3
       Max CFL number:  0.42E+00 at (   7,   4,  14)
       Max divergence:  0.17E-03 at (  16,   1,   2)
       Min divergence: -0.59E-04 at (   8,   1,  11)
       Max VN number:   0.71E-03 at (   2,   4,  16)
       Mesh    4
       Max CFL number:  0.35E+00 at (   4,   4,   1)
       Max divergence:  0.17E-03 at (   1,   1,   2)
       Min divergence: -0.14E-04 at (   6,   6,   4)
       Max VN number:   0.71E-03 at (  16,  16,  16)
       Mesh    5
       Max CFL number:  0.41E+00 at (   7,  14,   4)
       Max divergence:  0.75E-04 at (  12,  16,   6)
       Min divergence: -0.31E-04 at (   5,  14,   6)
       Max VN number:   0.71E-03 at (  16,   1,  16)
       Mesh    6
       Max CFL number:  0.41E+00 at (   3,   4,   3)
       Max divergence:  0.69E-04 at (   2,  12,   6)
       Min divergence: -0.39E-04 at (   3,   6,   4)
       Max VN number:   0.71E-03 at (  16,  16,  16)
       Mesh    7
       Max CFL number:  0.44E+00 at (   7,   4,   4)
       Max divergence:  0.75E-04 at (  12,   1,   6)
       Min divergence: -0.35E-04 at (   5,   4,   6)
       Max VN number:   0.71E-03 at (  16,  16,  16)
       Mesh    8
       Max CFL number:  0.49E-01 at (   1,   1,   8)
       Max divergence:  0.13E-04 at (   1,   1,  12)
       Min divergence:  0.14E-07 at (  16,  16,  16)
       Max VN number:   0.71E-03 at (  16,  16,  16)
 
       Time Step     100   November 13, 2020  14:05:57
       Step Size:    0.316E-02 s, Total Time:       0.40 s
       Pressure Iterations:      1
       Maximum Velocity Error:  0.56E-16 on Mesh   1 at (  12   3  17)
       Maximum Pressure Error:  0.29E+04 on Mesh   5 at (  13  13   2)
       ScaRC: iterations    59, residual  0.89E-08, convergence rate   0.60E+00
       ---------------------------------------------------------------
       Mesh    1
       Max CFL number:  0.35E+00 at (  14,   4,  14)
       Max divergence:  0.18E-03 at (  16,  16,   2)
       Min divergence: -0.60E-04 at (   9,  16,  11)
       Max VN number:   0.64E-03 at (  13,   3,  16)
       Mesh    2
       Max CFL number:  0.35E+00 at (   3,   4,  14)
       Max divergence:  0.18E-03 at (   1,  16,   2)
       Min divergence: -0.57E-04 at (   1,   9,  12)
       Max VN number:   0.64E-03 at (   4,   3,  16)
       Mesh    3
       Max CFL number:  0.42E+00 at (   8,   4,  13)
       Max divergence:  0.18E-03 at (  16,   1,   2)
       Min divergence: -0.59E-04 at (   9,   1,  11)
       Max VN number:   0.64E-03 at (   1,   4,  16)
       Mesh    4
       Max CFL number:  0.33E+00 at (   4,   4,   1)
       Max divergence:  0.18E-03 at (   1,   1,   2)
       Min divergence: -0.21E-04 at (   6,   6,   5)
       Max VN number:   0.64E-03 at (  16,  16,  16)
       Mesh    5
       Max CFL number:  0.42E+00 at (   8,  13,   4)
       Max divergence:  0.87E-04 at (  12,  16,   6)
       Min divergence: -0.35E-04 at (   6,  14,   6)
       Max VN number:   0.64E-03 at (  16,   1,  16)
       Mesh    6
       Max CFL number:  0.39E+00 at (   3,   4,   3)
       Max divergence:  0.78E-04 at (   2,  12,   5)
       Min divergence: -0.30E-04 at (   3,   7,   3)
       Max VN number:   0.64E-03 at (  16,  16,  16)
       Mesh    7
       Max CFL number:  0.45E+00 at (   8,   4,   4)
       Max divergence:  0.87E-04 at (  12,   1,   6)
       Min divergence: -0.43E-04 at (   6,   4,   5)
       Max VN number:   0.64E-03 at (  16,  16,  16)
       Mesh    8
       Max CFL number:  0.48E-01 at (   1,   1,   9)
       Max divergence:  0.14E-04 at (   1,   1,  12)
       Min divergence: -0.30E-06 at (   1,   1,   5)
       Max VN number:   0.64E-03 at (  16,  16,  16)
 
       Time Step     200   November 13, 2020  14:06:20
       Step Size:    0.270E-02 s, Total Time:       0.70 s
       Pressure Iterations:      1
       Maximum Velocity Error:  0.11E-15 on Mesh   1 at (  17   6  16)
       Maximum Pressure Error:  0.48E+04 on Mesh   2 at (   4  13  13)
       ScaRC: iterations    60, residual  0.69E-08, convergence rate   0.60E+00
       ---------------------------------------------------------------
       Mesh    1
       Max CFL number:  0.44E+00 at (   8,  11,  16)
       Max divergence:  0.12E-03 at (  13,  14,   8)
       Min divergence: -0.14E-03 at (  16,  10,  10)
       Max VN number:   0.55E-03 at (   9,  16,  16)
       Mesh    2
       Max CFL number:  0.39E+00 at (   5,  11,  15)
       Max divergence:  0.12E-03 at (   4,  13,  10)
       Min divergence: -0.17E-03 at (   1,  11,   9)
       Max VN number:   0.55E-03 at (   1,   9,  16)
       Mesh    3
       Max CFL number:  0.44E+00 at (  12,   9,   8)
       Max divergence:  0.11E-03 at (  12,   2,  10)
       Min divergence: -0.15E-03 at (  12,   8,   8)
       Max VN number:   0.55E-03 at (   8,   1,  16)
       Mesh    4
       Max CFL number:  0.39E+00 at (   4,   4,  12)
       Max divergence:  0.13E-03 at (   2,   8,  13)
       Min divergence: -0.71E-04 at (   1,   1,  10)
       Max VN number:   0.55E-03 at (  16,  16,  16)
       Mesh    5
       Max CFL number:  0.40E+00 at (  12,  10,   1)
       Max divergence:  0.15E-03 at (  12,  13,  13)
       Min divergence: -0.87E-04 at (  11,  16,   8)
       Max VN number:   0.55E-03 at (  16,   1,  16)
       Mesh    6
       Max CFL number:  0.41E+00 at (   1,  13,   9)
       Max divergence:  0.13E-03 at (   1,  13,   8)
       Min divergence: -0.66E-04 at (   4,   9,   6)
       Max VN number:   0.55E-03 at (  16,   1,  16)
       Mesh    7
       Max CFL number:  0.33E+00 at (  13,   9,   2)
       Max divergence:  0.13E-03 at (  13,   4,  13)
       Min divergence: -0.70E-04 at (  11,   3,   9)
       Max VN number:   0.55E-03 at (   1,  16,  16)
       Mesh    8
       Max CFL number:  0.16E+00 at (   3,   1,  10)
       Max divergence:  0.37E-04 at (   3,   1,  11)
       Min divergence: -0.20E-04 at (   1,   1,   7)
       Max VN number:   0.55E-03 at (  16,  16,  16)
 
       Time Step     300   November 13, 2020  14:06:46
       Step Size:    0.172E-02 s, Total Time:       0.93 s
       Pressure Iterations:      1
       Maximum Velocity Error:  0.22E-15 on Mesh   1 at (   5  12  17)
       Maximum Pressure Error:  0.64E+04 on Mesh   2 at (   4  13  13)
       ScaRC: iterations    60, residual  0.85E-08, convergence rate   0.60E+00
       ---------------------------------------------------------------
       Mesh    1
       Max CFL number:  0.46E+00 at (   8,  12,  16)
       Max divergence:  0.20E-03 at (  16,  15,   2)
       Min divergence: -0.22E-03 at (  16,  12,   9)
       Max VN number:   0.35E-03 at (  16,   8,  16)
       Mesh    2
       Max CFL number:  0.33E+00 at (   4,  14,  10)
       Max divergence:  0.18E-03 at (   3,  15,   2)
       Min divergence: -0.15E-03 at (   1,  12,  10)
       Max VN number:   0.35E-03 at (   4,  11,  16)
       Mesh    3
       Max CFL number:  0.33E+00 at (  12,   6,  11)
       Max divergence:  0.19E-03 at (  13,   1,   2)
       Min divergence: -0.17E-03 at (   9,   1,   8)
       Max VN number:   0.35E-03 at (  11,   4,  16)
       Mesh    4
       Max CFL number:  0.29E+00 at (   9,   9,  13)
       Max divergence:  0.18E-03 at (   1,   2,   2)
       Min divergence: -0.70E-04 at (   8,   8,  13)
       Max VN number:   0.35E-03 at (  16,  16,  16)
       Mesh    5
       Max CFL number:  0.30E+00 at (  11,  13,   6)
       Max divergence:  0.16E-03 at (  12,  14,   8)
       Min divergence: -0.10E-03 at (   7,  16,   6)
       Max VN number:   0.35E-03 at (  16,   1,  16)
       Mesh    6
       Max CFL number:  0.28E+00 at (   4,  12,   1)
       Max divergence:  0.13E-03 at (  12,  13,   1)
       Min divergence: -0.69E-04 at (   4,  12,   1)
       Max VN number:   0.35E-03 at (  16,   1,  16)
       Mesh    7
       Max CFL number:  0.31E+00 at (   4,   1,   1)
       Max divergence:  0.12E-03 at (  12,   1,   6)
       Min divergence: -0.10E-03 at (   9,   2,   7)
       Max VN number:   0.35E-03 at (   1,  16,  16)
       Mesh    8
       Max CFL number:  0.22E+00 at (  13,   1,   1)
       Max divergence:  0.12E-03 at (   1,   1,  15)
       Min divergence: -0.23E-04 at (   1,   9,   1)
       Max VN number:   0.35E-03 at (  16,  16,  16)
 
       Time Step     400   November 13, 2020  14:07:14
       Step Size:    0.143E-02 s, Total Time:       1.13 s
       Pressure Iterations:      1
       Maximum Velocity Error:  0.22E-15 on Mesh   1 at (  11  17  10)
       Maximum Pressure Error:  0.16E+05 on Mesh   5 at (  13  13   1)
       ScaRC: iterations    60, residual  0.90E-08, convergence rate   0.59E+00
       ---------------------------------------------------------------
       Mesh    1
       Max CFL number:  0.35E+00 at (  15,  15,   8)
       Max divergence:  0.22E-03 at (  15,  13,   2)
       Min divergence: -0.15E-03 at (  14,   9,   7)
       Max VN number:   0.29E-03 at (   7,  16,  16)
       Mesh    2
       Max CFL number:  0.27E+00 at (   1,   2,  16)
       Max divergence:  0.18E-03 at (   1,  12,  10)
       Min divergence: -0.21E-03 at (   1,  10,   7)
       Max VN number:   0.29E-03 at (   3,  12,  16)
       Mesh    3
       Max CFL number:  0.30E+00 at (  12,   7,  14)
       Max divergence:  0.20E-03 at (  13,   1,   2)
       Min divergence: -0.13E-03 at (  11,   1,   6)
       Max VN number:   0.29E-03 at (  12,   1,  16)
       Mesh    4
       Max CFL number:  0.25E+00 at (   2,   5,  12)
       Max divergence:  0.16E-03 at (   2,   2,   2)
       Min divergence: -0.75E-04 at (   1,   1,   8)
       Max VN number:   0.29E-03 at (  16,  16,  16)
       Mesh    5
       Max CFL number:  0.46E+00 at (  13,  12,   1)
       Max divergence:  0.14E-03 at (  12,  12,   8)
       Min divergence: -0.67E-04 at (   5,   9,   1)
       Max VN number:   0.29E-03 at (   7,  16,  16)
       Mesh    6
       Max CFL number:  0.24E+00 at (   2,   2,   2)
       Max divergence:  0.17E-03 at (   1,  10,   8)
       Min divergence: -0.81E-04 at (   9,  14,   1)
       Max VN number:   0.29E-03 at (  16,   1,  16)
       Mesh    7
       Max CFL number:  0.22E+00 at (  12,   2,   5)
       Max divergence:  0.12E-03 at (  12,   1,  10)
       Min divergence: -0.10E-03 at (  10,   4,   3)
       Max VN number:   0.29E-03 at (   1,   4,  16)
       Mesh    8
       Max CFL number:  0.21E+00 at (  12,   1,   1)
       Max divergence:  0.94E-04 at (   7,   7,   1)
       Min divergence: -0.30E-04 at (   1,   5,   3)
       Max VN number:   0.29E-03 at (  16,  16,  16)
 
       Time Step     500   November 13, 2020  14:07:42
       Step Size:    0.135E-02 s, Total Time:       1.29 s
       Pressure Iterations:      1
       Maximum Velocity Error:  0.22E-15 on Mesh   1 at (   7  17   8)
       Maximum Pressure Error:  0.17E+05 on Mesh   2 at (   2  13  13)
       ScaRC: iterations    61, residual  0.45E-08, convergence rate   0.59E+00
       ---------------------------------------------------------------
       Mesh    1
       Max CFL number:  0.40E+00 at (  15,   8,  15)
       Max divergence:  0.27E-03 at (  11,  16,  15)
       Min divergence: -0.19E-03 at (  14,  12,  10)
       Max VN number:   0.27E-03 at (  10,  16,  16)
       Mesh    2
       Max CFL number:  0.45E+00 at (   2,  12,  13)
       Max divergence:  0.19E-03 at (   2,  13,   2)
       Min divergence: -0.27E-03 at (   1,  12,  11)
       Max VN number:   0.27E-03 at (   2,   7,  16)
       Mesh    3
       Max CFL number:  0.26E+00 at (  13,   7,  12)
       Max divergence:  0.22E-03 at (  14,   1,   2)
       Min divergence: -0.14E-03 at (  11,   4,  14)
       Max VN number:   0.27E-03 at (  12,   1,  16)
       Mesh    4
       Max CFL number:  0.28E+00 at (   4,   4,  11)
       Max divergence:  0.18E-03 at (   4,   2,   2)
       Min divergence: -0.99E-04 at (   5,   4,  14)
       Max VN number:   0.27E-03 at (  16,  16,  16)
       Mesh    5
       Max CFL number:  0.36E+00 at (  15,  11,   1)
       Max divergence:  0.20E-03 at (  16,  12,   8)
       Min divergence: -0.92E-04 at (  16,  11,   1)
       Max VN number:   0.27E-03 at (   7,  16,  16)
       Mesh    6
       Max CFL number:  0.28E+00 at (   1,  10,   3)
       Max divergence:  0.19E-03 at (   8,  15,   2)
       Min divergence: -0.77E-04 at (   2,   9,   6)
       Max VN number:   0.27E-03 at (   5,   1,  16)
       Mesh    7
       Max CFL number:  0.20E+00 at (  11,   2,   7)
       Max divergence:  0.10E-03 at (  15,   3,  10)
       Min divergence: -0.81E-04 at (  10,   3,   2)
       Max VN number:   0.27E-03 at (   7,   2,  16)
       Mesh    8
       Max CFL number:  0.18E+00 at (   9,   3,   1)
       Max divergence:  0.13E-03 at (   6,   2,   2)
       Min divergence: -0.69E-04 at (  12,   1,   2)
       Max VN number:   0.27E-03 at (  16,  16,  16)
 
       Time Step     600   November 13, 2020  14:08:10
       Step Size:    0.145E-02 s, Total Time:       1.43 s
       Pressure Iterations:      1
       Maximum Velocity Error:  0.44E-15 on Mesh   5 at (  16  17  14)
       Maximum Pressure Error:  0.11E+05 on Mesh   2 at (   1  13  13)
       ScaRC: iterations    61, residual  0.54E-08, convergence rate   0.59E+00
       ---------------------------------------------------------------
       Mesh    1
       Max CFL number:  0.39E+00 at (  15,   9,  13)
       Max divergence:  0.22E-03 at (  15,  14,   2)
       Min divergence: -0.28E-03 at (  15,  12,   9)
       Max VN number:   0.29E-03 at (  14,  12,  16)
       Mesh    2
       Max CFL number:  0.42E+00 at (   2,  11,  12)
       Max divergence:  0.24E-03 at (   1,  13,   7)
       Min divergence: -0.30E-03 at (   1,  13,  11)
       Max VN number:   0.29E-03 at (   2,  12,  16)
       Mesh    3
       Max CFL number:  0.33E+00 at (  14,   1,  11)
       Max divergence:  0.22E-03 at (  14,   3,   2)
       Min divergence: -0.12E-03 at (   6,   2,   9)
       Max VN number:   0.29E-03 at (   9,   3,  16)
       Mesh    4
       Max CFL number:  0.27E+00 at (   1,   1,   2)
       Max divergence:  0.28E-03 at (   1,   1,   2)
       Min divergence: -0.86E-04 at (   2,   2,  11)
       Max VN number:   0.29E-03 at (  16,  16,  16)
       Mesh    5
       Max CFL number:  0.35E+00 at (  16,   9,   2)
       Max divergence:  0.18E-03 at (  16,  10,   6)
       Min divergence: -0.96E-04 at (  14,  11,   6)
       Max VN number:   0.29E-03 at (   7,  16,  16)
       Mesh    6
       Max CFL number:  0.48E+00 at (   1,  10,   1)
       Max divergence:  0.18E-03 at (   1,  12,   6)
       Min divergence: -0.12E-03 at (   4,   9,   6)
       Max VN number:   0.29E-03 at (   2,   7,  16)
       Mesh    7
       Max CFL number:  0.26E+00 at (  16,   1,  14)
       Max divergence:  0.15E-03 at (  16,   1,  14)
       Min divergence: -0.86E-04 at (   9,   4,   4)
       Max VN number:   0.29E-03 at (   7,   2,  16)
       Mesh    8
       Max CFL number:  0.22E+00 at (  11,   4,   2)
       Max divergence:  0.23E-03 at (  11,   3,   4)
       Min divergence: -0.67E-04 at (  14,   1,   1)
       Max VN number:   0.29E-03 at (  16,  16,  16)
 
       Time Step     700   November 13, 2020  14:08:37
       Step Size:    0.124E-02 s, Total Time:       1.57 s
       Pressure Iterations:      1
       Maximum Velocity Error:  0.22E-15 on Mesh   1 at (   5  17   8)
       Maximum Pressure Error:  0.12E+05 on Mesh   5 at (  16  12   3)
       ScaRC: iterations    61, residual  0.60E-08, convergence rate   0.59E+00
       ---------------------------------------------------------------
       Mesh    1
       Max CFL number:  0.48E+00 at (  16,  10,  15)
       Max divergence:  0.35E-03 at (  15,  12,   9)
       Min divergence: -0.26E-03 at (  15,  12,  10)
       Max VN number:   0.25E-03 at (  16,   9,  16)
       Mesh    2
       Max CFL number:  0.38E+00 at (   1,  10,  12)
       Max divergence:  0.24E-03 at (   1,  16,   3)
       Min divergence: -0.24E-03 at (   1,  10,  13)
       Max VN number:   0.25E-03 at (   2,   9,  16)
       Mesh    3
       Max CFL number:  0.28E+00 at (  12,   5,  12)
       Max divergence:  0.22E-03 at (  15,   2,   2)
       Min divergence: -0.11E-03 at (  13,   7,  15)
       Max VN number:   0.25E-03 at (   6,  16,  16)
       Mesh    4
       Max CFL number:  0.32E+00 at (   1,   1,  10)
       Max divergence:  0.25E-03 at (   1,   1,  11)
       Min divergence: -0.16E-03 at (   1,   2,  11)
       Max VN number:   0.25E-03 at (  14,  13,  16)
       Mesh    5
       Max CFL number:  0.35E+00 at (  16,  11,   3)
       Max divergence:  0.17E-03 at (  13,  14,  16)
       Min divergence: -0.12E-03 at (  16,   9,   1)
       Max VN number:   0.25E-03 at (   7,  16,  16)
       Mesh    6
       Max CFL number:  0.38E+00 at (   2,   7,   1)
       Max divergence:  0.19E-03 at (   2,  11,   8)
       Min divergence: -0.12E-03 at (   2,  12,   9)
       Max VN number:   0.25E-03 at (   3,   7,  16)
       Mesh    7
       Max CFL number:  0.19E+00 at (  13,   1,   7)
       Max divergence:  0.16E-03 at (  15,   8,   3)
       Min divergence: -0.86E-04 at (  10,   1,   8)
       Max VN number:   0.25E-03 at (   7,   1,  16)
       Mesh    8
       Max CFL number:  0.17E+00 at (  10,   1,   1)
       Max divergence:  0.13E-03 at (  11,   3,  10)
       Min divergence: -0.89E-04 at (   9,   2,   3)
       Max VN number:   0.25E-03 at (  16,  16,  16)
 
       Time Step     800   November 13, 2020  14:09:04
       Step Size:    0.134E-02 s, Total Time:       1.69 s
       Pressure Iterations:      1
       Maximum Velocity Error:  0.44E-15 on Mesh   2 at (   1  10  17)
       Maximum Pressure Error:  0.11E+05 on Mesh   6 at (   1  13   2)
       ScaRC: iterations    61, residual  0.59E-08, convergence rate   0.59E+00
       ---------------------------------------------------------------
       Mesh    1
       Max CFL number:  0.40E+00 at (  16,  11,  14)
       Max divergence:  0.26E-03 at (  15,  15,   2)
       Min divergence: -0.37E-03 at (  14,  11,   9)
       Max VN number:   0.27E-03 at (  16,   3,  16)
       Mesh    2
       Max CFL number:  0.43E+00 at (   1,  11,  11)
       Max divergence:  0.24E-03 at (   1,  14,   7)
       Min divergence: -0.26E-03 at (   1,  11,   9)
       Max VN number:   0.27E-03 at (   1,   9,  16)
       Mesh    3
       Max CFL number:  0.31E+00 at (  15,   4,  10)
       Max divergence:  0.19E-03 at (  13,   2,   9)
       Min divergence: -0.17E-03 at (  15,   1,  11)
       Max VN number:   0.27E-03 at (   6,  16,  16)
       Mesh    4
       Max CFL number:  0.30E+00 at (   3,   4,  12)
       Max divergence:  0.24E-03 at (   1,   1,   2)
       Min divergence: -0.11E-03 at (   3,   5,  14)
       Max VN number:   0.27E-03 at (  16,  13,  16)
       Mesh    5
       Max CFL number:  0.42E+00 at (  15,   6,   1)
       Max divergence:  0.23E-03 at (  15,  12,   9)
       Min divergence: -0.10E-03 at (  16,   5,   3)
       Max VN number:   0.27E-03 at (  16,   5,  16)
       Mesh    6
       Max CFL number:  0.42E+00 at (   1,   4,   2)
       Max divergence:  0.25E-03 at (   2,  12,   6)
       Min divergence: -0.12E-03 at (   5,  11,   2)
       Max VN number:   0.27E-03 at (   6,   9,  16)
       Mesh    7
       Max CFL number:  0.26E+00 at (   9,   1,   2)
       Max divergence:  0.13E-03 at (   9,   1,   1)
       Min divergence: -0.94E-04 at (   7,   1,   2)
       Max VN number:   0.27E-03 at (   7,   2,  16)
       Mesh    8
       Max CFL number:  0.22E+00 at (  11,   2,   3)
       Max divergence:  0.18E-03 at (   5,   8,   6)
       Min divergence: -0.60E-04 at (   2,   8,   5)
       Max VN number:   0.27E-03 at (  16,  16,  16)
 
       Time Step     900   November 13, 2020  14:09:31
       Step Size:    0.133E-02 s, Total Time:       1.83 s
       Pressure Iterations:      1
       Maximum Velocity Error:  0.44E-15 on Mesh   1 at (  12  17  12)
       Maximum Pressure Error:  0.15E+05 on Mesh   2 at (   1  16  13)
       ScaRC: iterations    61, residual  0.64E-08, convergence rate   0.59E+00
       ---------------------------------------------------------------
       Mesh    1
       Max CFL number:  0.44E+00 at (  15,   5,  15)
       Max divergence:  0.23E-03 at (  15,  14,   2)
       Min divergence: -0.34E-03 at (  15,  12,   7)
       Max VN number:   0.27E-03 at (  14,  12,  16)
       Mesh    2
       Max CFL number:  0.38E+00 at (   1,   6,  16)
       Max divergence:  0.25E-03 at (   3,  15,   4)
       Min divergence: -0.26E-03 at (   1,  12,   8)
       Max VN number:   0.27E-03 at (   3,   7,  16)
       Mesh    3
       Max CFL number:  0.34E+00 at (  12,   6,  11)
       Max divergence:  0.22E-03 at (  16,   1,   4)
       Min divergence: -0.14E-03 at (  12,   1,  13)
       Max VN number:   0.27E-03 at (   5,  16,  16)
       Mesh    4
       Max CFL number:  0.32E+00 at (   3,   1,  11)
       Max divergence:  0.21E-03 at (   3,   1,   2)
       Min divergence: -0.11E-03 at (   1,   3,  11)
       Max VN number:   0.27E-03 at (  16,  16,  16)
       Mesh    5
       Max CFL number:  0.38E+00 at (  16,   5,   1)
       Max divergence:  0.19E-03 at (  14,  13,  10)
       Min divergence: -0.14E-03 at (  14,   3,   5)
       Max VN number:   0.27E-03 at (  16,   5,  16)
       Mesh    6
       Max CFL number:  0.43E+00 at (   5,  12,   1)
       Max divergence:  0.22E-03 at (   3,  11,   4)
       Min divergence: -0.12E-03 at (   6,  11,   2)
       Max VN number:   0.27E-03 at (   1,   5,  16)
       Mesh    7
       Max CFL number:  0.26E+00 at (  10,   1,   1)
       Max divergence:  0.21E-03 at (   8,   1,   1)
       Min divergence: -0.97E-04 at (   4,   1,   1)
       Max VN number:   0.27E-03 at (   7,   2,  16)
       Mesh    8
       Max CFL number:  0.20E+00 at (   7,   2,   2)
       Max divergence:  0.14E-03 at (   7,   2,   2)
       Min divergence: -0.62E-04 at (  12,   3,   1)
       Max VN number:   0.27E-03 at (  16,  16,  16)
 
       Time Step    1000   November 13, 2020  14:09:59
       Step Size:    0.993E-03 s, Total Time:       1.95 s
       Pressure Iterations:      1
       Maximum Velocity Error:  0.89E-15 on Mesh   2 at (   1  10  17)
       Maximum Pressure Error:  0.14E+05 on Mesh   2 at (   2  13  16)
       ScaRC: iterations    61, residual  0.60E-08, convergence rate   0.59E+00
       ---------------------------------------------------------------
       Mesh    1
       Max CFL number:  0.48E+00 at (  15,  10,  16)
       Max divergence:  0.31E-03 at (  15,  13,   7)
       Min divergence: -0.28E-03 at (  16,  10,   7)
       Max VN number:   0.20E-03 at (  16,  12,  16)
       Mesh    2
       Max CFL number:  0.35E+00 at (   1,  10,  16)
       Max divergence:  0.27E-03 at (   1,  14,   2)
       Min divergence: -0.30E-03 at (   3,  12,  12)
       Max VN number:   0.20E-03 at (   3,  11,  16)
       Mesh    3
       Max CFL number:  0.27E+00 at (  11,   1,  12)
       Max divergence:  0.24E-03 at (  15,   2,   2)
       Min divergence: -0.15E-03 at (  15,   1,  11)
       Max VN number:   0.20E-03 at (   1,   2,  16)
       Mesh    4
       Max CFL number:  0.22E+00 at (   1,   1,   9)
       Max divergence:  0.21E-03 at (   1,   3,   7)
       Min divergence: -0.11E-03 at (   2,   6,  13)
       Max VN number:   0.20E-03 at (  16,  16,  16)
       Mesh    5
       Max CFL number:  0.35E+00 at (  16,  10,   2)
       Max divergence:  0.20E-03 at (  15,  11,   7)
       Min divergence: -0.14E-03 at (  16,  10,   1)
       Max VN number:   0.20E-03 at (  16,   5,  16)
       Mesh    6
       Max CFL number:  0.30E+00 at (   1,  10,   1)
       Max divergence:  0.24E-03 at (   1,  10,   1)
       Min divergence: -0.13E-03 at (   3,  11,   1)
       Max VN number:   0.20E-03 at (   4,   7,  16)
       Mesh    7
       Max CFL number:  0.17E+00 at (   3,   1,   3)
       Max divergence:  0.14E-03 at (   7,   2,   4)
       Min divergence: -0.98E-04 at (  11,   3,   6)
       Max VN number:   0.20E-03 at (   7,   7,  16)
       Mesh    8
       Max CFL number:  0.16E+00 at (   8,   1,   1)
       Max divergence:  0.11E-03 at (  11,   2,   1)
       Min divergence: -0.71E-04 at (   1,   6,   1)
       Max VN number:   0.20E-03 at (  16,  16,  16)
 
       Time Step    1048   November 13, 2020  14:10:11
       Step Size:    0.877E-03 s, Total Time:       2.00 s
       Pressure Iterations:      1
       Maximum Velocity Error:  0.44E-15 on Mesh   5 at (  17  12   3)
       Maximum Pressure Error:  0.13E+05 on Mesh   1 at (  13  13  13)
       ScaRC: iterations    61, residual  0.72E-08, convergence rate   0.59E+00
       ---------------------------------------------------------------
       Mesh    1
       Max CFL number:  0.28E+00 at (  15,   7,  15)
       Max divergence:  0.27E-03 at (  16,  11,  12)
       Min divergence: -0.29E-03 at (  15,  11,   6)
       Max VN number:   0.18E-03 at (  16,   8,  16)
       Mesh    2
       Max CFL number:  0.28E+00 at (   2,  13,   3)
       Max divergence:  0.26E-03 at (   3,  13,   2)
       Min divergence: -0.31E-03 at (   3,  12,   8)
       Max VN number:   0.18E-03 at (   1,  11,  16)
       Mesh    3
       Max CFL number:  0.28E+00 at (  13,   1,  12)
       Max divergence:  0.22E-03 at (  11,   2,  14)
       Min divergence: -0.13E-03 at (  13,   1,  12)
       Max VN number:   0.18E-03 at (  10,  16,  16)
       Mesh    4
       Max CFL number:  0.19E+00 at (   1,   1,  10)
       Max divergence:  0.25E-03 at (   1,   1,   9)
       Min divergence: -0.12E-03 at (   3,   5,  14)
       Max VN number:   0.18E-03 at (  16,  16,  16)
       Mesh    5
       Max CFL number:  0.35E+00 at (  14,  10,   1)
       Max divergence:  0.20E-03 at (  16,  12,   6)
       Min divergence: -0.14E-03 at (  14,   9,   2)
       Max VN number:   0.18E-03 at (  16,   5,  16)
       Mesh    6
       Max CFL number:  0.25E+00 at (   7,  12,   4)
       Max divergence:  0.20E-03 at (   8,  14,   2)
       Min divergence: -0.13E-03 at (   3,   2,   5)
       Max VN number:   0.18E-03 at (   4,   7,  16)
       Mesh    7
       Max CFL number:  0.14E+00 at (   8,   2,   2)
       Max divergence:  0.15E-03 at (   8,   2,   2)
       Min divergence: -0.13E-03 at (  10,   3,   6)
       Max VN number:   0.18E-03 at (   7,   7,  16)
       Mesh    8
       Max CFL number:  0.14E+00 at (   3,   1,   7)
       Max divergence:  0.10E-03 at (   8,   1,   2)
       Min divergence: -0.11E-03 at (  11,   1,   2)
       Max VN number:   0.18E-03 at (  16,  16,  16)
 


 Time Stepping Wall Clock Time (s):      279.435
 Total Elapsed Wall Clock Time (s):      279.988

STOP: FDS completed successfully (CHID: pressure_iteration3d_uscarc)
