
 Starting FDS ...

 MPI Process      1 started on au138
 MPI Process      3 started on au138
 MPI Process      4 started on au138
 MPI Process      0 started on au138
 MPI Process      2 started on au138

 Reading FDS input file ...


 Fire Dynamics Simulator

 Current Date     : February 19, 2020  19:10:16
 Revision         : -master
 Revision Date    : Wed Feb 19 18:38:00 2020 +0100
 Compiler         : Intel ifort 18.0.1
 Compilation Date : Feb 19, 2020 18:48:59

 MPI Enabled;    Number of MPI Processes:       5
 OpenMP Enabled; Number of OpenMP Threads:      4

 MPI version: 3.1
 MPI library version: Intel(R) MPI Library 2018 Update 1 for Linux* OS


 Job TITLE        : Silly Multi-Mesh Test with structured ScaRC solver
 Job ID string    : hallways_scarc

 Time Step:      1, Simulation Time:      0.05 s
 Time Step:      2, Simulation Time:      0.10 s
 Time Step:      3, Simulation Time:      0.15 s
 Time Step:      4, Simulation Time:      0.20 s
 Time Step:      5, Simulation Time:      0.25 s
 Time Step:      6, Simulation Time:      0.30 s
 Time Step:      7, Simulation Time:      0.35 s
 Time Step:      8, Simulation Time:      0.40 s
 Time Step:      9, Simulation Time:      0.44 s
 Time Step:     10, Simulation Time:      0.49 s
 Time Step:     20, Simulation Time:      0.77 s
 Time Step:     30, Simulation Time:      0.92 s
 Time Step:     40, Simulation Time:      1.03 s
 Time Step:     50, Simulation Time:      1.13 s
 Time Step:     60, Simulation Time:      1.22 s
 Time Step:     70, Simulation Time:      1.29 s
 Time Step:     80, Simulation Time:      1.36 s
 Time Step:     90, Simulation Time:      1.44 s
 Time Step:    100, Simulation Time:      1.52 s
 Time Step:    200, Simulation Time:      2.34 s
 Time Step:    300, Simulation Time:      3.17 s
 Time Step:    400, Simulation Time:      4.06 s
 Time Step:    500, Simulation Time:      4.98 s
 Time Step:    600, Simulation Time:      5.91 s
 Time Step:    700, Simulation Time:      6.83 s
 Time Step:    800, Simulation Time:      7.75 s
 Time Step:    900, Simulation Time:      8.76 s
 Time Step:   1000, Simulation Time:      9.81 s
 Time Step:   1100, Simulation Time:     10.78 s
 Time Step:   1200, Simulation Time:     11.84 s
 Time Step:   1300, Simulation Time:     12.87 s
 Time Step:   1400, Simulation Time:     13.99 s
 Time Step:   1500, Simulation Time:     14.99 s
 Time Step:   1600, Simulation Time:     16.02 s
 Time Step:   1700, Simulation Time:     17.07 s
 Time Step:   1800, Simulation Time:     18.14 s
 Time Step:   1900, Simulation Time:     19.20 s
 Time Step:   2000, Simulation Time:     20.27 s
 Time Step:   2100, Simulation Time:     21.35 s
 Time Step:   2200, Simulation Time:     22.38 s
 Time Step:   2300, Simulation Time:     23.39 s
 Time Step:   2400, Simulation Time:     24.50 s
 Time Step:   2500, Simulation Time:     25.63 s
 Time Step:   2600, Simulation Time:     26.73 s
 Time Step:   2700, Simulation Time:     27.87 s
 Time Step:   2800, Simulation Time:     29.00 s
 Time Step:   2900, Simulation Time:     30.09 s
 Time Step:   3000, Simulation Time:     31.22 s
 Time Step:   3100, Simulation Time:     32.41 s
 Time Step:   3200, Simulation Time:     33.58 s
 Time Step:   3300, Simulation Time:     34.70 s
 Time Step:   3400, Simulation Time:     35.81 s
 Time Step:   3500, Simulation Time:     36.96 s
 Time Step:   3600, Simulation Time:     38.08 s
 Time Step:   3700, Simulation Time:     39.28 s
 Time Step:   3800, Simulation Time:     40.43 s
 Time Step:   3900, Simulation Time:     41.59 s
 Time Step:   4000, Simulation Time:     42.74 s
 Time Step:   4100, Simulation Time:     43.84 s
 Time Step:   4200, Simulation Time:     45.04 s
 Time Step:   4300, Simulation Time:     46.32 s
 Time Step:   4400, Simulation Time:     47.53 s
 Time Step:   4500, Simulation Time:     48.65 s
 Time Step:   4600, Simulation Time:     49.78 s
 Time Step:   4700, Simulation Time:     51.05 s
 Time Step:   4800, Simulation Time:     52.36 s
 Time Step:   4900, Simulation Time:     53.56 s
 Time Step:   5000, Simulation Time:     54.71 s
 Time Step:   5100, Simulation Time:     55.89 s
 Time Step:   5200, Simulation Time:     57.06 s
 Time Step:   5300, Simulation Time:     58.26 s
 Time Step:   5400, Simulation Time:     59.40 s
 Time Step:   5452, Simulation Time:     60.00 s

STOP: FDS completed successfully (CHID: hallways_scarc)
