
 Fire Dynamics Simulator

 Current Date     : June 26, 2020  16:17:46
 Revision         : -AMG
 Revision Date    : Fri Jun 26 15:19:14 2020 +0200
 Compiler         : Intel ifort 19.0.5.281
 Compilation Date : Jun 26, 2020 15:25:32

 MPI Enabled;    Number of MPI Processes:       4
 OpenMP Enabled; Number of OpenMP Threads:      4

 MPI version: 3.1
 MPI library version: Intel(R) MPI Library 2018 Update 1 for Linux* OS


 Job TITLE        : Simple 2D Tunnel test of UGLMAT solver
 Job ID string    : dancing_eddies_uglmat


 Grid Dimensions, Mesh     1

   Cells in the X Direction            75
   Cells in the Y Direction             1
   Cells in the Z Direction            40
   Number of Grid Cells              3000


 Physical Dimensions, Mesh     1

   Length (m)                       0.075
   Width  (m)                       0.002
   Height (m)                       0.040
   Initial Time Step (s)            0.004

 Grid Dimensions, Mesh     2

   Cells in the X Direction            75
   Cells in the Y Direction             1
   Cells in the Z Direction            40
   Number of Grid Cells              3000


 Physical Dimensions, Mesh     2

   Length (m)                       0.075
   Width  (m)                       0.002
   Height (m)                       0.040
   Initial Time Step (s)            0.004

 Grid Dimensions, Mesh     3

   Cells in the X Direction            75
   Cells in the Y Direction             1
   Cells in the Z Direction            40
   Number of Grid Cells              3000


 Physical Dimensions, Mesh     3

   Length (m)                       0.075
   Width  (m)                       0.002
   Height (m)                       0.040
   Initial Time Step (s)            0.004

 Grid Dimensions, Mesh     4

   Cells in the X Direction            75
   Cells in the Y Direction             1
   Cells in the Z Direction            40
   Number of Grid Cells              3000


 Physical Dimensions, Mesh     4

   Length (m)                       0.075
   Width  (m)                       0.002
   Height (m)                       0.040
   Initial Time Step (s)            0.004

Total Number of Grid Cells         12000


 Miscellaneous Parameters

   Simulation Start Time (s)          0.0
   Simulation End Time (s)            2.0
   Ambient Temperature (C):         20.00


 Mass Fraction Transformation Matrix to Convert Species Mixtures (Columns) to Primitive Species (Rows)

                         AIR     
   AIR                   1.000000


 Primitive Species Information

   AIR
   Gas Species
   Molecular Weight (g/mol)            28.01340
   Ambient Density (kg/m^3)            1.165
   Enthalpy of Formation (J/kg)        0.00E+00


 Tracked (Lumped) Species Information

   AIR
   Molecular Weight (g/mol)            28.01340
   Ambient Density (kg/m^3)            1.165
   Initial Mass Fraction               1.000
   Enthalpy of Formation (J/kg)      0.00E+00

   Sub Species                    Mass Fraction     Mole Fraction
   AIR                            1.000000E+00      1.000000E+00
 
     Viscosity (kg/m/s) Ambient,  293 K:  1.20E-05
                                  500 K:  1.20E-05
                                 1000 K:  1.20E-05
                                 1500 K:  1.20E-05
   Therm. Cond. (W/m/K) Ambient,  293 K:  1.76E-02
                                  500 K:  1.76E-02
                                 1000 K:  1.76E-02
                                 1500 K:  1.76E-02
        Enthalpy (J/kg) Ambient,  293 K:  3.05E+05
                                  500 K:  5.19E+05
                                 1000 K:  1.04E+06
                                 1500 K:  1.56E+06
    Spec. Heat (J/kg/K) Ambient,  293 K:  1.04E+03
                                  500 K:  1.04E+03
                                 1000 K:  1.04E+03
                                 1500 K:  1.04E+03
   Diff. Coeff. (m^2/s) Ambient,  293 K:  1.99E-05
                                  500 K:  4.93E-05
                                 1000 K:  1.57E-04
                                 1500 K:  3.07E-04


 Material Information


 Surface Conditions

   0 INERT

   1 WALL (DEFAULT)

   2 PLATE

   3 BLOW
     Normal Velocity (m/s)        -0.500
     AIR Mass Fraction         1.000

   4 OPEN
     Passive Vent to Atmosphere

   5 MIRROR
     Symmetry Plane

   6 INTERPOLATED

   7 PERIODIC

   8 HVAC

   9 MASSLESS TRACER

  10 DROPLET

  11 EVACUATION_OUTFLOW
     Normal Velocity (m/s)         0.000

  12 MASSLESS TARGET

  13 PERIODIC WIND


 Device Coordinates

     1 Coords:      0.200000      0.000000      0.000000, Make: null, ID: pres, Quantity: PRESSURE
     2 Coords:      0.000010      0.000000      0.000000, Make: null, ID: error, Quantity: MAXIMUM VELOCITY ERROR
     3 Coords:      0.000010      0.000000      0.000000, Make: null, ID: iter, Quantity: PRESSURE ITERATIONS
     4 Coords:      0.000010      0.000000      0.000000, Make: null, ID: cpu, Quantity: CPU TIME


 Slice File Information, Mesh     1

   Sampling Interval (s)             0.002

   1 Nodes:   0  75   1   1   0  40, Quantity: VELOCITY
   2 Nodes:   0  75   1   1   0  40, Quantity: U-VELOCITY
   3 Nodes:   0  75   1   1   0  40, Quantity: W-VELOCITY
   4 Nodes:   0  75   1   1   0  40, Quantity: H
   5 Nodes:   0  75   1   1   0  40, Quantity: PRESSURE


 Radiation Model Information

   Number of control angles   60
   Time step increment         2
   Angle increment             4
   Phi band   N_theta Solid angle
     1:       60     0.209
   Using constant absorption coefficient of -10.000 1/m


 GlMat Information

   Global Pressure solver       : Intel MKL Cluster Sparse Solver
 
 
   Using GLMAT as pressure solver. List of H unknown numbers per proc:
    MPI Process, H unknowns =           0        2999 , Peak Factorization Memory Required (MB)=           5

 Run Time Diagnostics

       Time Step       1   June 26, 2020  16:17:46
       Step Size:    0.395E-02 s, Total Time:      0.004 s
       Pressure Iterations:      1
       Maximum Velocity Error:  0.00E+00 on Mesh   1 at (   0   0   0)
       Maximum Pressure Error:  0.57E+06 on Mesh   1 at (  21   1  25)
       ---------------------------------------------------------------
       Mesh    1
       Max CFL number:  0.12E-01 at (  20,   1,  24)
       Max divergence:  0.71E-12 at (  32,   1,  26)
       Min divergence: -0.71E-12 at (   6,   1,  12)
       Max VN number:   0.23E+00 at (  75,   1,  40)
       Mesh    2
       Max CFL number:  0.31E-01 at (  28,   1,  15)
       Max divergence:  0.77E-12 at (   6,   1,  10)
       Min divergence: -0.82E-12 at (   1,   1,  25)
       Max VN number:   0.23E+00 at (  75,   1,  40)
       Mesh    3
       Max CFL number:  0.78E-02 at (   1,   1,   5)
       Max divergence:  0.33E-12 at (   1,   1,  19)
       Min divergence: -0.38E-12 at (  12,   1,  20)
       Max VN number:   0.23E+00 at (  75,   1,  40)
       Mesh    4
       Max CFL number:  0.78E-02 at (   1,   1,   5)
       Max divergence:  0.16E-12 at (   8,   1,   2)
       Min divergence: -0.19E-12 at (  18,   1,  19)
       Max VN number:   0.23E+00 at (  75,   1,  40)
 
       Time Step       2   June 26, 2020  16:17:46
       Step Size:    0.395E-02 s, Total Time:      0.008 s
       Pressure Iterations:      1
       Maximum Velocity Error:  0.00E+00 on Mesh   1 at (   0   0   0)
       Maximum Pressure Error:  0.57E+06 on Mesh   1 at (  21   1  25)
       ---------------------------------------------------------------
       Mesh    1
       Max CFL number:  0.24E-01 at (  20,   1,  24)
       Max divergence:  0.61E-12 at (   4,   1,  33)
       Min divergence: -0.63E-12 at (  75,   1,  24)
       Max VN number:   0.23E+00 at (  32,   1,  26)
       Mesh    2
       Max CFL number:  0.59E-01 at (  25,   1,  26)
       Max divergence:  0.58E-12 at (  13,   1,  37)
       Min divergence: -0.48E-12 at (   1,   1,  25)
       Max VN number:   0.23E+00 at (   6,   1,  10)
       Mesh    3
       Max CFL number:  0.16E-01 at (   1,   1,   5)
       Max divergence:  0.48E-12 at (  37,   1,  23)
       Min divergence: -0.38E-12 at (  38,   1,  21)
       Max VN number:   0.23E+00 at (  40,   1,  27)
       Mesh    4
       Max CFL number:  0.16E-01 at (   1,   1,   5)
       Max divergence:  0.17E-12 at (   2,   1,  33)
       Min divergence: -0.14E-12 at (   3,   1,  34)
       Max VN number:   0.23E+00 at (   7,   1,  38)
 
       Time Step       3   June 26, 2020  16:17:46
       Step Size:    0.395E-02 s, Total Time:       0.01 s
       Pressure Iterations:      1
       Maximum Velocity Error:  0.00E+00 on Mesh   1 at (   0   0   0)
       Maximum Pressure Error:  0.57E+06 on Mesh   1 at (  21   1  25)
       ---------------------------------------------------------------
       Mesh    1
       Max CFL number:  0.35E-01 at (  20,   1,  24)
       Max divergence:  0.53E-12 at (   7,   1,  34)
       Min divergence: -0.47E-12 at (  75,   1,  29)
       Max VN number:   0.23E+00 at (  32,   1,  26)
       Mesh    2
       Max CFL number:  0.86E-01 at (  25,   1,  26)
       Max divergence:  0.42E-12 at (   3,   1,  24)
       Min divergence: -0.32E-12 at (   1,   1,  25)
       Max VN number:   0.23E+00 at (   6,   1,  10)
       Mesh    3
       Max CFL number:  0.23E-01 at (   1,   1,   5)
       Max divergence:  0.29E-12 at (  40,   1,  33)
       Min divergence: -0.21E-12 at (  37,   1,   9)
       Max VN number:   0.23E+00 at (  37,   1,  23)
       Mesh    4
       Max CFL number:  0.23E-01 at (   1,   1,   5)
       Max divergence:  0.20E-12 at (   3,   1,  34)
       Min divergence: -0.14E-12 at (   8,   1,  39)
       Max VN number:   0.23E+00 at (   2,   1,  33)
 
       Time Step       4   June 26, 2020  16:17:46
       Step Size:    0.395E-02 s, Total Time:       0.02 s
       Pressure Iterations:      1
       Maximum Velocity Error:  0.00E+00 on Mesh   1 at (   0   0   0)
       Maximum Pressure Error:  0.57E+06 on Mesh   1 at (  21   1  25)
       ---------------------------------------------------------------
       Mesh    1
       Max CFL number:  0.46E-01 at (  20,   1,  24)
       Max divergence:  0.52E-12 at (  38,   1,  30)
       Min divergence: -0.47E-12 at (   8,   1,  37)
       Max VN number:   0.23E+00 at (  16,   1,  16)
       Mesh    2
       Max CFL number:  0.11E+00 at (  25,   1,  26)
       Max divergence:  0.43E-12 at (  33,   1,  37)
       Min divergence: -0.36E-12 at (  75,   1,  25)
       Max VN number:   0.23E+00 at (   6,   1,  10)
       Mesh    3
       Max CFL number:  0.31E-01 at (   1,   1,   5)
       Max divergence:  0.28E-12 at (   1,   1,  19)
       Min divergence: -0.25E-12 at (  38,   1,  21)
       Max VN number:   0.23E+00 at (  37,   1,  23)
       Mesh    4
       Max CFL number:  0.31E-01 at (   1,   1,   5)
       Max divergence:  0.15E-12 at (   2,   1,  33)
       Min divergence: -0.89E-13 at (   2,   1,  21)
       Max VN number:   0.23E+00 at (   9,   1,  10)
 
       Time Step       5   June 26, 2020  16:17:46
       Step Size:    0.395E-02 s, Total Time:       0.02 s
       Pressure Iterations:      1
       Maximum Velocity Error:  0.00E+00 on Mesh   1 at (   0   0   0)
       Maximum Pressure Error:  0.57E+06 on Mesh   1 at (  21   1  25)
       ---------------------------------------------------------------
       Mesh    1
       Max CFL number:  0.57E-01 at (  20,   1,  24)
       Max divergence:  0.50E-12 at (  75,   1,  33)
       Min divergence: -0.40E-12 at (  14,   1,  30)
       Max VN number:   0.23E+00 at (  70,   1,  15)
       Mesh    2
       Max CFL number:  0.14E+00 at (  25,   1,  26)
       Max divergence:  0.45E-12 at (   5,   1,  10)
       Min divergence: -0.32E-12 at (  14,   1,  18)
       Max VN number:   0.23E+00 at (   6,   1,  10)
       Mesh    3
       Max CFL number:  0.39E-01 at (   1,   1,   5)
       Max divergence:  0.26E-12 at (  36,   1,  37)
       Min divergence: -0.36E-12 at (  38,   1,  21)
       Max VN number:   0.23E+00 at (   1,   1,  19)
       Mesh    4
       Max CFL number:  0.39E-01 at (   1,   1,   5)
       Max divergence:  0.12E-12 at (   7,   1,   7)
       Min divergence: -0.86E-13 at (   9,   1,  40)
       Max VN number:   0.23E+00 at (   4,   1,  10)
 
       Time Step       6   June 26, 2020  16:17:46
       Step Size:    0.395E-02 s, Total Time:       0.02 s
       Pressure Iterations:      1
       Maximum Velocity Error:  0.00E+00 on Mesh   1 at (   0   0   0)
       Maximum Pressure Error:  0.57E+06 on Mesh   1 at (  21   1  25)
       ---------------------------------------------------------------
       Mesh    1
       Max CFL number:  0.67E-01 at (  20,   1,  24)
       Max divergence:  0.48E-12 at (  38,   1,  30)
       Min divergence: -0.36E-12 at (  13,   1,  31)
       Max VN number:   0.23E+00 at (  70,   1,  15)
       Mesh    2
       Max CFL number:  0.16E+00 at (  25,   1,  26)
       Max divergence:  0.40E-12 at (  23,   1,   7)
       Min divergence: -0.31E-12 at (  37,   1,  24)
       Max VN number:   0.23E+00 at (  13,   1,  37)
       Mesh    3
       Max CFL number:  0.47E-01 at (   1,   1,   5)
       Max divergence:  0.29E-12 at (  16,   1,  37)
       Min divergence: -0.23E-12 at (   2,   1,  35)
       Max VN number:   0.23E+00 at (   1,   1,  19)
       Mesh    4
       Max CFL number:  0.47E-01 at (   1,   1,   5)
       Max divergence:  0.12E-12 at (  21,   1,   3)
       Min divergence: -0.90E-13 at (  25,   1,  33)
       Max VN number:   0.23E+00 at (   4,   1,  10)
 
       Time Step       7   June 26, 2020  16:17:47
       Step Size:    0.395E-02 s, Total Time:       0.03 s
       Pressure Iterations:      1
       Maximum Velocity Error:  0.00E+00 on Mesh   1 at (   0   0   0)
       Maximum Pressure Error:  0.57E+06 on Mesh   1 at (  21   1  25)
       ---------------------------------------------------------------
       Mesh    1
       Max CFL number:  0.77E-01 at (  20,   1,  24)
       Max divergence:  0.49E-12 at (  10,   1,  37)
       Min divergence: -0.31E-12 at (  64,   1,   3)
       Max VN number:   0.23E+00 at (  70,   1,  15)
       Mesh    2
       Max CFL number:  0.19E+00 at (  25,   1,  26)
       Max divergence:  0.36E-12 at (  23,   1,  14)
       Min divergence: -0.26E-12 at (   2,   1,  29)
       Max VN number:   0.23E+00 at (   6,   1,  10)
       Mesh    3
       Max CFL number:  0.55E-01 at (   1,   1,   5)
       Max divergence:  0.33E-12 at (  37,   1,  24)
       Min divergence: -0.20E-12 at (  12,   1,  21)
       Max VN number:   0.23E+00 at (   1,   1,  19)
       Mesh    4
       Max CFL number:  0.55E-01 at (   1,   1,   5)
       Max divergence:  0.12E-12 at (   9,   1,  37)
       Min divergence: -0.91E-13 at (  24,   1,  20)
       Max VN number:   0.23E+00 at (   5,   1,  15)
 
       Time Step       8   June 26, 2020  16:17:47
       Step Size:    0.395E-02 s, Total Time:       0.03 s
       Pressure Iterations:      1
       Maximum Velocity Error:  0.00E+00 on Mesh   1 at (   0   0   0)
       Maximum Pressure Error:  0.57E+06 on Mesh   1 at (  21   1  25)
       ---------------------------------------------------------------
       Mesh    1
       Max CFL number:  0.88E-01 at (  20,   1,  24)
       Max divergence:  0.56E-12 at (  50,   1,  16)
       Min divergence: -0.33E-12 at (  11,   1,  14)
       Max VN number:   0.23E+00 at (  70,   1,  15)
       Mesh    2
       Max CFL number:  0.21E+00 at (  25,   1,  26)
       Max divergence:  0.36E-12 at (  33,   1,  37)
       Min divergence: -0.32E-12 at (  29,   1,  33)
       Max VN number:   0.23E+00 at (   6,   1,  10)
       Mesh    3
       Max CFL number:  0.63E-01 at (   1,   1,   5)
       Max divergence:  0.24E-12 at (  19,   1,  34)
       Min divergence: -0.20E-12 at (   2,   1,  35)
       Max VN number:   0.23E+00 at (   1,   1,  19)
       Mesh    4
       Max CFL number:  0.62E-01 at (   1,   1,   5)
       Max divergence:  0.17E-12 at (   3,   1,  34)
       Min divergence: -0.94E-13 at (  25,   1,  31)
       Max VN number:   0.23E+00 at (   5,   1,  15)
 
       Time Step       9   June 26, 2020  16:17:47
       Step Size:    0.395E-02 s, Total Time:       0.04 s
       Pressure Iterations:      1
       Maximum Velocity Error:  0.00E+00 on Mesh   1 at (   0   0   0)
       Maximum Pressure Error:  0.57E+06 on Mesh   1 at (  21   1  25)
       ---------------------------------------------------------------
       Mesh    1
       Max CFL number:  0.98E-01 at (  20,   1,  24)
       Max divergence:  0.48E-12 at (   6,   1,  25)
       Min divergence: -0.40E-12 at (  46,   1,  27)
       Max VN number:   0.23E+00 at (  70,   1,  15)
       Mesh    2
       Max CFL number:  0.23E+00 at (  25,   1,  26)
       Max divergence:  0.36E-12 at (   3,   1,  22)
       Min divergence: -0.28E-12 at (   7,   1,  24)
       Max VN number:   0.23E+00 at (   6,   1,  10)
       Mesh    3
       Max CFL number:  0.70E-01 at (   1,   1,   5)
       Max divergence:  0.23E-12 at (  40,   1,  12)
       Min divergence: -0.19E-12 at (  38,   1,  10)
       Max VN number:   0.23E+00 at (   1,   1,  19)
       Mesh    4
       Max CFL number:  0.70E-01 at (   1,   1,   5)
       Max divergence:  0.12E-12 at (   9,   1,  40)
       Min divergence: -0.11E-12 at (   6,   1,  20)
       Max VN number:   0.23E+00 at (   4,   1,  10)
 
       Time Step      10   June 26, 2020  16:17:47
       Step Size:    0.395E-02 s, Total Time:       0.04 s
       Pressure Iterations:      1
       Maximum Velocity Error:  0.00E+00 on Mesh   1 at (   0   0   0)
       Maximum Pressure Error:  0.57E+06 on Mesh   1 at (  21   1  25)
       ---------------------------------------------------------------
       Mesh    1
       Max CFL number:  0.11E+00 at (  20,   1,  24)
       Max divergence:  0.49E-12 at (  38,   1,  30)
       Min divergence: -0.39E-12 at (  17,   1,  24)
       Max VN number:   0.23E+00 at (   4,   1,  33)
       Mesh    2
       Max CFL number:  0.25E+00 at (  25,   1,  26)
       Max divergence:  0.36E-12 at (  14,   1,  38)
       Min divergence: -0.32E-12 at (   2,   1,  26)
       Max VN number:   0.23E+00 at (   6,   1,  10)
       Mesh    3
       Max CFL number:  0.78E-01 at (   1,   1,   5)
       Max divergence:  0.23E-12 at (   4,   1,  33)
       Min divergence: -0.22E-12 at (  41,   1,  28)
       Max VN number:   0.23E+00 at (   1,   1,  19)
       Mesh    4
       Max CFL number:  0.78E-01 at (   1,   1,   5)
       Max divergence:  0.18E-12 at (   3,   1,  34)
       Min divergence: -0.86E-13 at (  26,   1,  30)
       Max VN number:   0.23E+00 at (   4,   1,  10)
 
       Time Step      20   June 26, 2020  16:17:47
       Step Size:    0.395E-02 s, Total Time:       0.08 s
       Pressure Iterations:      1
       Maximum Velocity Error:  0.00E+00 on Mesh   1 at (  76   1  39)
       Maximum Pressure Error:  0.57E+06 on Mesh   1 at (  21   1  25)
       ---------------------------------------------------------------
       Mesh    1
       Max CFL number:  0.22E+00 at (  20,   1,  23)
       Max divergence:  0.54E-12 at (  47,   1,  30)
       Min divergence: -0.39E-12 at (   1,   1,  27)
       Max VN number:   0.23E+00 at (   5,   1,  32)
       Mesh    2
       Max CFL number:  0.49E+00 at (  25,   1,  27)
       Max divergence:  0.46E-12 at (   1,   1,  10)
       Min divergence: -0.29E-12 at (  20,   1,   2)
       Max VN number:   0.23E+00 at (  13,   1,  37)
       Mesh    3
       Max CFL number:  0.16E+00 at (   1,   1,   5)
       Max divergence:  0.26E-12 at (   4,   1,  21)
       Min divergence: -0.25E-12 at (  38,   1,  35)
       Max VN number:   0.23E+00 at (   7,   1,   7)
       Mesh    4
       Max CFL number:  0.16E+00 at (   1,   1,   5)
       Max divergence:  0.14E-12 at (   4,   1,  15)
       Min divergence: -0.99E-13 at (   8,   1,  38)
       Max VN number:   0.23E+00 at (   4,   1,  10)
 
       Time Step      30   June 26, 2020  16:17:48
       Step Size:    0.263E-02 s, Total Time:       0.11 s
       Pressure Iterations:      1
       Maximum Velocity Error:  0.00E+00 on Mesh   1 at (  76   1  39)
       Maximum Pressure Error:  0.57E+06 on Mesh   1 at (  21   1  25)
       ---------------------------------------------------------------
       Mesh    1
       Max CFL number:  0.21E+00 at (  20,   1,  23)
       Max divergence:  0.52E-12 at (  12,   1,  13)
       Min divergence: -0.37E-12 at (  34,   1,  26)
       Max VN number:   0.15E+00 at (   7,   1,  32)
       Mesh    2
       Max CFL number:  0.47E+00 at (  25,   1,  27)
       Max divergence:  0.32E-12 at (   2,   1,  24)
       Min divergence: -0.28E-12 at (   7,   1,  10)
       Max VN number:   0.15E+00 at (   4,   1,   6)
       Mesh    3
       Max CFL number:  0.14E+00 at (   1,   1,   5)
       Max divergence:  0.23E-12 at (  37,   1,  24)
       Min divergence: -0.20E-12 at (  11,   1,   6)
       Max VN number:   0.15E+00 at (  24,   1,  14)
       Mesh    4
       Max CFL number:  0.14E+00 at (   1,   1,   5)
       Max divergence:  0.11E-12 at (   5,   1,  35)
       Min divergence: -0.87E-13 at (  25,   1,   3)
       Max VN number:   0.15E+00 at (   5,   1,  10)
 
       Time Step      40   June 26, 2020  16:17:48
       Step Size:    0.205E-02 s, Total Time:       0.13 s
       Pressure Iterations:      1
       Maximum Velocity Error:  0.00E+00 on Mesh   1 at (  76   1  24)
       Maximum Pressure Error:  0.57E+06 on Mesh   1 at (  21   1  25)
       ---------------------------------------------------------------
       Mesh    1
       Max CFL number:  0.20E+00 at (  20,   1,  23)
       Max divergence:  0.38E-12 at (   6,   1,  30)
       Min divergence: -0.32E-12 at (  34,   1,  26)
       Max VN number:   0.12E+00 at (   7,   1,  32)
       Mesh    2
       Max CFL number:  0.46E+00 at (  25,   1,  27)
       Max divergence:  0.30E-12 at (  13,   1,  16)
       Min divergence: -0.23E-12 at (  16,   1,  37)
       Max VN number:   0.12E+00 at (   6,   1,   6)
       Mesh    3
       Max CFL number:  0.14E+00 at (   1,   1,   5)
       Max divergence:  0.26E-12 at (  37,   1,  24)
       Min divergence: -0.18E-12 at (  42,   1,  19)
       Max VN number:   0.12E+00 at (   9,   1,   7)
       Mesh    4
       Max CFL number:  0.14E+00 at (   1,   1,   5)
       Max divergence:  0.94E-13 at (  10,   1,  12)
       Min divergence: -0.10E-12 at (  18,   1,  37)
       Max VN number:   0.12E+00 at (   1,   1,   6)
 
       Time Step      50   June 26, 2020  16:17:49
       Step Size:    0.183E-02 s, Total Time:       0.15 s
       Pressure Iterations:      1
       Maximum Velocity Error:  0.00E+00 on Mesh   1 at (  76   1  24)
       Maximum Pressure Error:  0.57E+06 on Mesh   1 at (  21   1  25)
       ---------------------------------------------------------------
       Mesh    1
       Max CFL number:  0.21E+00 at (  20,   1,  23)
       Max divergence:  0.30E-12 at (  12,   1,  13)
       Min divergence: -0.27E-12 at (  46,   1,  32)
       Max VN number:   0.11E+00 at (   8,   1,  33)
       Mesh    2
       Max CFL number:  0.47E+00 at (  25,   1,  27)
       Max divergence:  0.27E-12 at (  13,   1,  16)
       Min divergence: -0.18E-12 at (  20,   1,  19)
       Max VN number:   0.11E+00 at (   6,   1,   6)
       Mesh    3
       Max CFL number:  0.14E+00 at (   1,   1,   5)
       Max divergence:  0.17E-12 at (   3,   1,  14)
       Min divergence: -0.16E-12 at (  36,   1,  37)
       Max VN number:   0.11E+00 at (   9,   1,   7)
       Mesh    4
       Max CFL number:  0.14E+00 at (   1,   1,   5)
       Max divergence:  0.87E-13 at (   6,   1,   8)
       Min divergence: -0.95E-13 at (  15,   1,   2)
       Max VN number:   0.11E+00 at (   1,   1,   6)
 
       Time Step      60   June 26, 2020  16:17:49
       Step Size:    0.164E-02 s, Total Time:       0.17 s
       Pressure Iterations:      1
       Maximum Velocity Error:  0.00E+00 on Mesh   1 at (  76   1  24)
       Maximum Pressure Error:  0.57E+06 on Mesh   1 at (  21   1  25)
       ---------------------------------------------------------------
       Mesh    1
       Max CFL number:  0.21E+00 at (  20,   1,  23)
       Max divergence:  0.26E-12 at (  19,   1,  14)
       Min divergence: -0.23E-12 at (  19,   1,  12)
       Max VN number:   0.95E-01 at (  11,   1,  34)
       Mesh    2
       Max CFL number:  0.46E+00 at (  25,   1,  27)
       Max divergence:  0.22E-12 at (   6,   1,   8)
       Min divergence: -0.25E-12 at (   1,   1,  25)
       Max VN number:   0.95E-01 at (  18,   1,  14)
       Mesh    3
       Max CFL number:  0.14E+00 at (   1,   1,   5)
       Max divergence:  0.17E-12 at (  38,   1,  35)
       Min divergence: -0.15E-12 at (  14,   1,  21)
       Max VN number:   0.95E-01 at (   9,   1,   7)
       Mesh    4
       Max CFL number:  0.14E+00 at (   1,   1,   5)
       Max divergence:  0.10E-12 at (  29,   1,  22)
       Min divergence: -0.10E-12 at (  25,   1,  11)
       Max VN number:   0.95E-01 at (   1,   1,   6)
 
       Time Step      70   June 26, 2020  16:17:50
       Step Size:    0.147E-02 s, Total Time:       0.19 s
       Pressure Iterations:      1
       Maximum Velocity Error:  0.00E+00 on Mesh   1 at (  76   1  24)
       Maximum Pressure Error:  0.57E+06 on Mesh   1 at (  21   1  25)
       ---------------------------------------------------------------
       Mesh    1
       Max CFL number:  0.20E+00 at (  20,   1,  25)
       Max divergence:  0.25E-12 at (  27,   1,  25)
       Min divergence: -0.23E-12 at (  18,   1,  13)
       Max VN number:   0.85E-01 at (  11,   1,  34)
       Mesh    2
       Max CFL number:  0.45E+00 at (  25,   1,  27)
       Max divergence:  0.19E-12 at (  13,   1,  16)
       Min divergence: -0.16E-12 at (  67,   1,  15)
       Max VN number:   0.85E-01 at (  19,   1,  14)
       Mesh    3
       Max CFL number:  0.14E+00 at (   1,   1,   5)
       Max divergence:  0.15E-12 at (   8,   1,  25)
       Min divergence: -0.15E-12 at (  42,   1,  19)
       Max VN number:   0.85E-01 at (  10,   1,   7)
       Mesh    4
       Max CFL number:  0.14E+00 at (   1,   1,   5)
       Max divergence:  0.94E-13 at (   6,   1,   8)
       Min divergence: -0.10E-12 at (  25,   1,  11)
       Max VN number:   0.85E-01 at (   1,   1,   6)
 
       Time Step      80   June 26, 2020  16:17:50
       Step Size:    0.147E-02 s, Total Time:       0.20 s
       Pressure Iterations:      1
       Maximum Velocity Error:  0.00E+00 on Mesh   1 at (  76   1  24)
       Maximum Pressure Error:  0.57E+06 on Mesh   1 at (  21   1  25)
       ---------------------------------------------------------------
       Mesh    1
       Max CFL number:  0.23E+00 at (  20,   1,  25)
       Max divergence:  0.29E-12 at (  19,   1,  14)
       Min divergence: -0.24E-12 at (  20,   1,  25)
       Max VN number:   0.85E-01 at (  12,   1,  34)
       Mesh    2
       Max CFL number:  0.48E+00 at (  25,   1,  27)
       Max divergence:  0.18E-12 at (  33,   1,  31)
       Min divergence: -0.18E-12 at (  34,   1,   6)
       Max VN number:   0.85E-01 at (  20,   1,  14)
       Mesh    3
       Max CFL number:  0.15E+00 at (   1,   1,   5)
       Max divergence:  0.18E-12 at (  38,   1,  25)
       Min divergence: -0.15E-12 at (  13,   1,  22)
       Max VN number:   0.85E-01 at (  27,   1,  14)
       Mesh    4
       Max CFL number:  0.15E+00 at (   1,   1,   5)
       Max divergence:  0.94E-13 at (   2,   1,   8)
       Min divergence: -0.11E-12 at (  15,   1,   2)
       Max VN number:   0.85E-01 at (   1,   1,   6)
 
       Time Step      90   June 26, 2020  16:17:51
       Step Size:    0.132E-02 s, Total Time:       0.21 s
       Pressure Iterations:      1
       Maximum Velocity Error:  0.00E+00 on Mesh   1 at (  76   1  24)
       Maximum Pressure Error:  0.57E+06 on Mesh   1 at (  21   1  25)
       ---------------------------------------------------------------
       Mesh    1
       Max CFL number:  0.22E+00 at (  20,   1,  25)
       Max divergence:  0.24E-12 at (  19,   1,  14)
       Min divergence: -0.21E-12 at (  12,   1,  32)
       Max VN number:   0.77E-01 at (  15,   1,  34)
       Mesh    2
       Max CFL number:  0.46E+00 at (  25,   1,  27)
       Max divergence:  0.19E-12 at (  21,   1,   9)
       Min divergence: -0.17E-12 at (   1,   1,  38)
       Max VN number:   0.77E-01 at (  20,   1,  14)
       Mesh    3
       Max CFL number:  0.14E+00 at (   1,   1,   5)
       Max divergence:  0.13E-12 at (  27,   1,   1)
       Min divergence: -0.15E-12 at (  12,   1,   7)
       Max VN number:   0.77E-01 at (  27,   1,  14)
       Mesh    4
       Max CFL number:  0.14E+00 at (   1,   1,   5)
       Max divergence:  0.94E-13 at (  29,   1,  22)
       Min divergence: -0.12E-12 at (  19,   1,  33)
       Max VN number:   0.77E-01 at (   1,   1,   6)
 
       Time Step     100   June 26, 2020  16:17:51
       Step Size:    0.132E-02 s, Total Time:       0.23 s
       Pressure Iterations:      1
       Maximum Velocity Error:  0.00E+00 on Mesh   1 at (  76   1  24)
       Maximum Pressure Error:  0.57E+06 on Mesh   1 at (  21   1  25)
       ---------------------------------------------------------------
       Mesh    1
       Max CFL number:  0.24E+00 at (  20,   1,  25)
       Max divergence:  0.23E-12 at (  13,   1,   7)
       Min divergence: -0.41E-12 at (  20,   1,  25)
       Max VN number:   0.77E-01 at (  15,   1,  34)
       Mesh    2
       Max CFL number:  0.48E+00 at (  25,   1,  27)
       Max divergence:  0.19E-12 at (  22,   1,   7)
       Min divergence: -0.18E-12 at (   1,   1,  38)
       Max VN number:   0.77E-01 at (  22,   1,  10)
       Mesh    3
       Max CFL number:  0.15E+00 at (   1,   1,   5)
       Max divergence:  0.13E-12 at (  38,   1,  35)
       Min divergence: -0.16E-12 at (  41,   1,  30)
       Max VN number:   0.77E-01 at (  27,   1,  14)
       Mesh    4
       Max CFL number:  0.15E+00 at (   1,   1,   5)
       Max divergence:  0.10E-12 at (   8,   1,   8)
       Min divergence: -0.11E-12 at (  15,   1,   2)
       Max VN number:   0.77E-01 at (   1,   1,   6)
 
       Time Step     200   June 26, 2020  16:17:57
       Step Size:    0.960E-03 s, Total Time:       0.34 s
       Pressure Iterations:      1
       Maximum Velocity Error:  0.00E+00 on Mesh   1 at (  76   1  19)
       Maximum Pressure Error:  0.57E+06 on Mesh   1 at (  21   1  25)
       ---------------------------------------------------------------
       Mesh    1
       Max CFL number:  0.27E+00 at (  20,   1,  25)
       Max divergence:  0.24E-12 at (  21,   1,  15)
       Min divergence: -0.45E-12 at (  20,   1,  25)
       Max VN number:   0.56E-01 at (  30,   1,  35)
       Mesh    2
       Max CFL number:  0.47E+00 at (  25,   1,  27)
       Max divergence:  0.19E-12 at (  43,   1,  30)
       Min divergence: -0.23E-12 at (  26,   1,  26)
       Max VN number:   0.56E-01 at (   6,   1,   6)
       Mesh    3
       Max CFL number:  0.16E+00 at (   1,   1,   5)
       Max divergence:  0.17E-12 at (  40,   1,  24)
       Min divergence: -0.17E-12 at (  42,   1,  19)
       Max VN number:   0.56E-01 at (  27,   1,  14)
       Mesh    4
       Max CFL number:  0.16E+00 at (   1,   1,   6)
       Max divergence:  0.12E-12 at (   8,   1,   8)
       Min divergence: -0.14E-12 at (   2,   1,   6)
       Max VN number:   0.56E-01 at (   1,   1,   6)
 
       Time Step     300   June 26, 2020  16:18:01
       Step Size:    0.776E-03 s, Total Time:       0.43 s
       Pressure Iterations:      1
       Maximum Velocity Error:  0.00E+00 on Mesh   1 at (  76   1  19)
       Maximum Pressure Error:  0.57E+06 on Mesh   1 at (  21   1  25)
       ---------------------------------------------------------------
       Mesh    1
       Max CFL number:  0.28E+00 at (  20,   1,  25)
       Max divergence:  0.22E-12 at (  14,   1,  24)
       Min divergence: -0.42E-12 at (  21,   1,  24)
       Max VN number:   0.45E-01 at (  37,   1,  34)
       Mesh    2
       Max CFL number:  0.45E+00 at (  25,   1,  27)
       Max divergence:  0.20E-12 at (  26,   1,  35)
       Min divergence: -0.26E-12 at (  26,   1,  26)
       Max VN number:   0.45E-01 at (   6,   1,   6)
       Mesh    3
       Max CFL number:  0.16E+00 at (   1,   1,   6)
       Max divergence:  0.19E-12 at (  33,   1,  20)
       Min divergence: -0.20E-12 at (  42,   1,  19)
       Max VN number:   0.45E-01 at (  28,   1,  14)
       Mesh    4
       Max CFL number:  0.16E+00 at (   1,   1,   6)
       Max divergence:  0.12E-12 at (   1,   1,   4)
       Min divergence: -0.17E-12 at (   4,   1,   6)
       Max VN number:   0.45E-01 at (   1,   1,   6)
 
       Time Step     400   June 26, 2020  16:18:06
       Step Size:    0.698E-03 s, Total Time:       0.50 s
       Pressure Iterations:      1
       Maximum Velocity Error:  0.00E+00 on Mesh   1 at (  76   1  19)
       Maximum Pressure Error:  0.57E+06 on Mesh   1 at (  21   1  25)
       ---------------------------------------------------------------
       Mesh    1
       Max CFL number:  0.29E+00 at (  20,   1,  25)
       Max divergence:  0.24E-12 at (  24,   1,  10)
       Min divergence: -0.40E-12 at (  20,   1,  25)
       Max VN number:   0.41E-01 at (  38,   1,  35)
       Mesh    2
       Max CFL number:  0.46E+00 at (  25,   1,  27)
       Max divergence:  0.23E-12 at (  24,   1,  28)
       Min divergence: -0.24E-12 at (  25,   1,  28)
       Max VN number:   0.41E-01 at (   6,   1,   6)
       Mesh    3
       Max CFL number:  0.17E+00 at (   1,   1,   5)
       Max divergence:  0.18E-12 at (  40,   1,   9)
       Min divergence: -0.20E-12 at (  61,   1,  19)
       Max VN number:   0.41E-01 at (  29,   1,  14)
       Mesh    4
       Max CFL number:  0.16E+00 at (   1,   1,   6)
       Max divergence:  0.15E-12 at (   1,   1,   4)
       Min divergence: -0.18E-12 at (  25,   1,  11)
       Max VN number:   0.41E-01 at (   1,   1,   6)
 
       Time Step     500   June 26, 2020  16:18:11
       Step Size:    0.628E-03 s, Total Time:       0.57 s
       Pressure Iterations:      1
       Maximum Velocity Error:  0.28E-16 on Mesh   1 at (  76   1  27)
       Maximum Pressure Error:  0.57E+06 on Mesh   1 at (  21   1  25)
       ---------------------------------------------------------------
       Mesh    1
       Max CFL number:  0.30E+00 at (  20,   1,  25)
       Max divergence:  0.27E-12 at (  10,   1,  33)
       Min divergence: -0.40E-12 at (  20,   1,  25)
       Max VN number:   0.36E-01 at (  70,   1,  37)
       Mesh    2
       Max CFL number:  0.46E+00 at (  25,   1,  14)
       Max divergence:  0.26E-12 at (  29,   1,  30)
       Min divergence: -0.27E-12 at (  47,   1,   5)
       Max VN number:   0.36E-01 at (   6,   1,   6)
       Mesh    3
       Max CFL number:  0.17E+00 at (   1,   1,   6)
       Max divergence:  0.21E-12 at (  52,   1,   8)
       Min divergence: -0.21E-12 at (  70,   1,  37)
       Max VN number:   0.36E-01 at (  29,   1,  14)
       Mesh    4
       Max CFL number:  0.16E+00 at (   1,   1,   6)
       Max divergence:  0.20E-12 at (  19,   1,  21)
       Min divergence: -0.19E-12 at (  20,   1,  21)
       Max VN number:   0.36E-01 at (   1,   1,   6)
 
       Time Step     600   June 26, 2020  16:18:15
       Step Size:    0.628E-03 s, Total Time:       0.63 s
       Pressure Iterations:      1
       Maximum Velocity Error:  0.00E+00 on Mesh   1 at (  76   1  25)
       Maximum Pressure Error:  0.57E+06 on Mesh   1 at (  21   1  25)
       ---------------------------------------------------------------
       Mesh    1
       Max CFL number:  0.32E+00 at (  20,   1,  25)
       Max divergence:  0.29E-12 at (  16,   1,  16)
       Min divergence: -0.31E-12 at (  21,   1,  24)
       Max VN number:   0.36E-01 at (  70,   1,  37)
       Mesh    2
       Max CFL number:  0.50E+00 at (  25,   1,  14)
       Max divergence:  0.27E-12 at (  59,   1,   7)
       Min divergence: -0.29E-12 at (  55,   1,   6)
       Max VN number:   0.36E-01 at (   6,   1,   6)
       Mesh    3
       Max CFL number:  0.20E+00 at (   1,   1,   7)
       Max divergence:  0.23E-12 at (  25,   1,  13)
       Min divergence: -0.21E-12 at (   8,   1,  26)
       Max VN number:   0.36E-01 at (   1,   1,  15)
       Mesh    4
       Max CFL number:  0.18E+00 at (   1,   1,   5)
       Max divergence:  0.20E-12 at (   2,   1,  28)
       Min divergence: -0.23E-12 at (  25,   1,  11)
       Max VN number:   0.36E-01 at (   1,   1,   6)
 
       Time Step     700   June 26, 2020  16:18:19
       Step Size:    0.565E-03 s, Total Time:       0.69 s
       Pressure Iterations:      1
       Maximum Velocity Error:  0.00E+00 on Mesh   1 at (  76   1  25)
       Maximum Pressure Error:  0.57E+06 on Mesh   1 at (  21   1  25)
       ---------------------------------------------------------------
       Mesh    1
       Max CFL number:  0.31E+00 at (  20,   1,  25)
       Max divergence:  0.30E-12 at (  20,   1,   8)
       Min divergence: -0.57E-12 at (  20,   1,  25)
       Max VN number:   0.33E-01 at (  70,   1,  37)
       Mesh    2
       Max CFL number:  0.48E+00 at (  25,   1,  14)
       Max divergence:  0.26E-12 at (  50,   1,   5)
       Min divergence: -0.36E-12 at (  25,   1,  32)
       Max VN number:   0.33E-01 at (   6,   1,   6)
       Mesh    3
       Max CFL number:  0.20E+00 at (   1,   1,   7)
       Max divergence:  0.25E-12 at (  54,   1,  13)
       Min divergence: -0.23E-12 at (  61,   1,  10)
       Max VN number:   0.33E-01 at (   1,   1,  15)
       Mesh    4
       Max CFL number:  0.17E+00 at (   1,   1,   8)
       Max divergence:  0.21E-12 at (   2,   1,  28)
       Min divergence: -0.22E-12 at (  25,   1,  11)
       Max VN number:   0.33E-01 at (   1,   1,   6)
 
       Time Step     800   June 26, 2020  16:18:23
       Step Size:    0.508E-03 s, Total Time:       0.75 s
       Pressure Iterations:      1
       Maximum Velocity Error:  0.00E+00 on Mesh   1 at (  76   1  25)
       Maximum Pressure Error:  0.58E+06 on Mesh   1 at (  21   1  25)
       ---------------------------------------------------------------
       Mesh    1
       Max CFL number:  0.30E+00 at (  20,   1,  25)
       Max divergence:  0.28E-12 at (  17,   1,  12)
       Min divergence: -0.30E-12 at (  75,   1,  37)
       Max VN number:   0.30E-01 at (  70,   1,  37)
       Mesh    2
       Max CFL number:  0.45E+00 at (  25,   1,  14)
       Max divergence:  0.29E-12 at (  72,   1,  10)
       Min divergence: -0.39E-12 at (  57,   1,   4)
       Max VN number:   0.30E-01 at (   6,   1,   6)
       Mesh    3
       Max CFL number:  0.22E+00 at (   1,   1,   9)
       Max divergence:  0.23E-12 at (   5,   1,  32)
       Min divergence: -0.27E-12 at (  61,   1,  10)
       Max VN number:   0.30E-01 at (   1,   1,  15)
       Mesh    4
       Max CFL number:  0.16E+00 at (   1,   1,  14)
       Max divergence:  0.22E-12 at (   2,   1,  28)
       Min divergence: -0.25E-12 at (  22,   1,  33)
       Max VN number:   0.30E-01 at (   1,   1,   6)
 
       Time Step     900   June 26, 2020  16:18:26
       Step Size:    0.508E-03 s, Total Time:       0.80 s
       Pressure Iterations:      1
       Maximum Velocity Error:  0.00E+00 on Mesh   1 at (  76   1  25)
       Maximum Pressure Error:  0.58E+06 on Mesh   1 at (  21   1  25)
       ---------------------------------------------------------------
       Mesh    1
       Max CFL number:  0.31E+00 at (  20,   1,  25)
       Max divergence:  0.30E-12 at (  16,   1,  16)
       Min divergence: -0.40E-12 at (  20,   1,  25)
       Max VN number:   0.30E-01 at (  70,   1,  37)
       Mesh    2
       Max CFL number:  0.47E+00 at (  25,   1,  14)
       Max divergence:  0.32E-12 at (  24,   1,  32)
       Min divergence: -0.32E-12 at (  65,   1,  39)
       Max VN number:   0.30E-01 at (   6,   1,   6)
       Mesh    3
       Max CFL number:  0.27E+00 at (   1,   1,  12)
       Max divergence:  0.26E-12 at (   3,   1,  13)
       Min divergence: -0.29E-12 at (  61,   1,  10)
       Max VN number:   0.30E-01 at (   1,   1,  12)
       Mesh    4
       Max CFL number:  0.17E+00 at (   1,   1,  15)
       Max divergence:  0.24E-12 at (   2,   1,  28)
       Min divergence: -0.22E-12 at (  24,   1,  14)
       Max VN number:   0.30E-01 at (   1,   1,   6)
 
       Time Step    1000   June 26, 2020  16:18:31
       Step Size:    0.508E-03 s, Total Time:       0.85 s
       Pressure Iterations:      1
       Maximum Velocity Error:  0.56E-16 on Mesh   2 at (  76   1  30)
       Maximum Pressure Error:  0.58E+06 on Mesh   1 at (  21   1  25)
       ---------------------------------------------------------------
       Mesh    1
       Max CFL number:  0.33E+00 at (  20,   1,  25)
       Max divergence:  0.29E-12 at (  22,   1,   7)
       Min divergence: -0.33E-12 at (  21,   1,  26)
       Max VN number:   0.30E-01 at (  70,   1,  37)
       Mesh    2
       Max CFL number:  0.49E+00 at (  25,   1,  14)
       Max divergence:  0.37E-12 at (  72,   1,   3)
       Min divergence: -0.31E-12 at (  73,   1,   7)
       Max VN number:   0.30E-01 at (   6,   1,   6)
       Mesh    3
       Max CFL number:  0.33E+00 at (   1,   1,  11)
       Max divergence:  0.26E-12 at (   6,   1,   9)
       Min divergence: -0.26E-12 at (  61,   1,  10)
       Max VN number:   0.30E-01 at (   4,   1,  12)
       Mesh    4
       Max CFL number:  0.18E+00 at (   1,   1,  15)
       Max divergence:  0.25E-12 at (   9,   1,   8)
       Min divergence: -0.25E-12 at (  19,   1,  37)
       Max VN number:   0.30E-01 at (   1,   1,   6)
 
       Time Step    1100   June 26, 2020  16:18:35
       Step Size:    0.457E-03 s, Total Time:       0.89 s
       Pressure Iterations:      1
       Maximum Velocity Error:  0.28E-16 on Mesh   2 at (  76   1  22)
       Maximum Pressure Error:  0.59E+06 on Mesh   1 at (  21   1  25)
       ---------------------------------------------------------------
       Mesh    1
       Max CFL number:  0.31E+00 at (  20,   1,  25)
       Max divergence:  0.33E-12 at (  16,   1,  16)
       Min divergence: -0.34E-12 at (  21,   1,  26)
       Max VN number:   0.27E-01 at (  70,   1,  37)
       Mesh    2
       Max CFL number:  0.46E+00 at (  25,   1,  14)
       Max divergence:  0.33E-12 at (  24,   1,  32)
       Min divergence: -0.35E-12 at (  75,   1,   3)
       Max VN number:   0.27E-01 at (   6,   1,   6)
       Mesh    3
       Max CFL number:  0.34E+00 at (   1,   1,  10)
       Max divergence:  0.37E-12 at (   4,   1,   6)
       Min divergence: -0.34E-12 at (   4,   1,   3)
       Max VN number:   0.27E-01 at (   2,   1,   9)
       Mesh    4
       Max CFL number:  0.17E+00 at (   1,   1,  15)
       Max divergence:  0.23E-12 at (   2,   1,  28)
       Min divergence: -0.28E-12 at (  25,   1,  11)
       Max VN number:   0.27E-01 at (   1,   1,   6)
 
       Time Step    1200   June 26, 2020  16:18:38
       Step Size:    0.457E-03 s, Total Time:       0.94 s
       Pressure Iterations:      1
       Maximum Velocity Error:  0.00E+00 on Mesh   1 at (  76   1  25)
       Maximum Pressure Error:  0.59E+06 on Mesh   1 at (  21   1  25)
       ---------------------------------------------------------------
       Mesh    1
       Max CFL number:  0.32E+00 at (  20,   1,  25)
       Max divergence:  0.33E-12 at (  18,   1,  19)
       Min divergence: -0.36E-12 at (  21,   1,  26)
       Max VN number:   0.27E-01 at (  70,   1,  37)
       Mesh    2
       Max CFL number:  0.48E+00 at (  25,   1,  14)
       Max divergence:  0.38E-12 at (  55,   1,   9)
       Min divergence: -0.37E-12 at (  75,   1,   6)
       Max VN number:   0.27E-01 at (   6,   1,   6)
       Mesh    3
       Max CFL number:  0.35E+00 at (   1,   1,   9)
       Max divergence:  0.33E-12 at (  15,   1,  13)
       Min divergence: -0.34E-12 at (   3,   1,   5)
       Max VN number:   0.27E-01 at (   1,   1,   8)
       Mesh    4
       Max CFL number:  0.17E+00 at (   1,   1,  15)
       Max divergence:  0.25E-12 at (   3,   1,  26)
       Min divergence: -0.26E-12 at (  25,   1,  11)
       Max VN number:   0.27E-01 at (   1,   1,   6)
 
       Time Step    1300   June 26, 2020  16:18:42
       Step Size:    0.457E-03 s, Total Time:       0.99 s
       Pressure Iterations:      1
       Maximum Velocity Error:  0.00E+00 on Mesh   1 at (  76   1  25)
       Maximum Pressure Error:  0.59E+06 on Mesh   1 at (  21   1  25)
       ---------------------------------------------------------------
       Mesh    1
       Max CFL number:  0.33E+00 at (  20,   1,  25)
       Max divergence:  0.37E-12 at (  16,   1,  16)
       Min divergence: -0.38E-12 at (  21,   1,  26)
       Max VN number:   0.27E-01 at (  70,   1,  37)
       Mesh    2
       Max CFL number:  0.49E+00 at (  25,   1,  14)
       Max divergence:  0.34E-12 at (  25,   1,  27)
       Min divergence: -0.44E-12 at (  75,   1,   2)
       Max VN number:   0.27E-01 at (   6,   1,   6)
       Mesh    3
       Max CFL number:  0.37E+00 at (   1,   1,   8)
       Max divergence:  0.36E-12 at (   8,   1,   2)
       Min divergence: -0.42E-12 at (   9,   1,   2)
       Max VN number:   0.27E-01 at (   1,   1,   7)
       Mesh    4
       Max CFL number:  0.18E+00 at (   1,   1,  15)
       Max divergence:  0.27E-12 at (   3,   1,  26)
       Min divergence: -0.24E-12 at (  19,   1,  37)
       Max VN number:   0.27E-01 at (   1,   1,   6)
 
       Time Step    1400   June 26, 2020  16:18:46
       Step Size:    0.412E-03 s, Total Time:       1.03 s
       Pressure Iterations:      1
       Maximum Velocity Error:  0.00E+00 on Mesh   1 at (  76   1  25)
       Maximum Pressure Error:  0.60E+06 on Mesh   1 at (  21   1  25)
       ---------------------------------------------------------------
       Mesh    1
       Max CFL number:  0.30E+00 at (  20,   1,  25)
       Max divergence:  0.30E-12 at (  18,   1,  19)
       Min divergence: -0.36E-12 at (  75,   1,  19)
       Max VN number:   0.24E-01 at (  70,   1,  37)
       Mesh    2
       Max CFL number:  0.45E+00 at (  25,   1,  14)
       Max divergence:  0.34E-12 at (  22,   1,  15)
       Min divergence: -0.36E-12 at (  25,   1,  32)
       Max VN number:   0.24E-01 at (   6,   1,   6)
       Mesh    3
       Max CFL number:  0.35E+00 at (   5,   1,   8)
       Max divergence:  0.39E-12 at (  18,   1,   4)
       Min divergence: -0.44E-12 at (  15,   1,  38)
       Max VN number:   0.24E-01 at (   5,   1,   7)
       Mesh    4
       Max CFL number:  0.17E+00 at (   1,   1,  35)
       Max divergence:  0.27E-12 at (   2,   1,  28)
       Min divergence: -0.26E-12 at (  25,   1,  11)
       Max VN number:   0.24E-01 at (   1,   1,   6)
 
       Time Step    1500   June 26, 2020  16:18:49
       Step Size:    0.412E-03 s, Total Time:       1.07 s
       Pressure Iterations:      1
       Maximum Velocity Error:  0.00E+00 on Mesh   1 at (  76   1  25)
       Maximum Pressure Error:  0.60E+06 on Mesh   1 at (  21   1  25)
       ---------------------------------------------------------------
       Mesh    1
       Max CFL number:  0.31E+00 at (  20,   1,  25)
       Max divergence:  0.35E-12 at (  50,   1,  18)
       Min divergence: -0.32E-12 at (  75,   1,  30)
       Max VN number:   0.24E-01 at (  70,   1,  37)
       Mesh    2
       Max CFL number:  0.46E+00 at (  25,   1,  14)
       Max divergence:  0.31E-12 at (  25,   1,  27)
       Min divergence: -0.36E-12 at (  28,   1,  35)
       Max VN number:   0.24E-01 at (   6,   1,   6)
       Mesh    3
       Max CFL number:  0.36E+00 at (  15,   1,   9)
       Max divergence:  0.42E-12 at (  20,   1,   9)
       Min divergence: -0.44E-12 at (  13,   1,  39)
       Max VN number:   0.24E-01 at (   2,   1,   7)
       Mesh    4
       Max CFL number:  0.17E+00 at (   1,   1,  15)
       Max divergence:  0.27E-12 at (   3,   1,  26)
       Min divergence: -0.29E-12 at (  25,   1,  11)
       Max VN number:   0.24E-01 at (   1,   1,   6)
 
       Time Step    1600   June 26, 2020  16:18:53
       Step Size:    0.412E-03 s, Total Time:       1.11 s
       Pressure Iterations:      1
       Maximum Velocity Error:  0.14E-16 on Mesh   2 at (  76   1  24)
       Maximum Pressure Error:  0.60E+06 on Mesh   1 at (  21   1  25)
       ---------------------------------------------------------------
       Mesh    1
       Max CFL number:  0.31E+00 at (  20,   1,  25)
       Max divergence:  0.35E-12 at (  48,   1,  11)
       Min divergence: -0.34E-12 at (  20,   1,  25)
       Max VN number:   0.24E-01 at (  70,   1,  37)
       Mesh    2
       Max CFL number:  0.47E+00 at (  25,   1,  14)
       Max divergence:  0.31E-12 at (  42,   1,  33)
       Min divergence: -0.39E-12 at (  25,   1,  32)
       Max VN number:   0.24E-01 at (   6,   1,   6)
       Mesh    3
       Max CFL number:  0.38E+00 at (   8,   1,  34)
       Max divergence:  0.43E-12 at (  27,   1,   7)
       Min divergence: -0.48E-12 at (   9,   1,  37)
       Max VN number:   0.24E-01 at (   6,   1,   7)
       Mesh    4
       Max CFL number:  0.18E+00 at (   1,   1,  15)
       Max divergence:  0.28E-12 at (   2,   1,  28)
       Min divergence: -0.28E-12 at (  25,   1,  11)
       Max VN number:   0.24E-01 at (   1,   1,   6)
 
       Time Step    1700   June 26, 2020  16:18:56
       Step Size:    0.412E-03 s, Total Time:       1.15 s
       Pressure Iterations:      1
       Maximum Velocity Error:  0.56E-16 on Mesh   2 at (  76   1  12)
       Maximum Pressure Error:  0.61E+06 on Mesh   1 at (  21   1  25)
       ---------------------------------------------------------------
       Mesh    1
       Max CFL number:  0.32E+00 at (  20,   1,  25)
       Max divergence:  0.35E-12 at (  50,   1,  18)
       Min divergence: -0.35E-12 at (  75,   1,  30)
       Max VN number:   0.24E-01 at (  70,   1,  37)
       Mesh    2
       Max CFL number:  0.48E+00 at (  25,   1,  14)
       Max divergence:  0.35E-12 at (  74,   1,   3)
       Min divergence: -0.39E-12 at (  25,   1,  32)
       Max VN number:   0.24E-01 at (   6,   1,   6)
       Mesh    3
       Max CFL number:  0.41E+00 at (   1,   1,   8)
       Max divergence:  0.45E-12 at (  20,   1,  40)
       Min divergence: -0.58E-12 at (  32,   1,   5)
       Max VN number:   0.24E-01 at (   7,   1,   7)
       Mesh    4
       Max CFL number:  0.18E+00 at (  10,   1,  14)
       Max divergence:  0.32E-12 at (   3,   1,  26)
       Min divergence: -0.27E-12 at (   6,   1,  31)
       Max VN number:   0.24E-01 at (   1,   1,   6)
 
       Time Step    1800   June 26, 2020  16:19:00
       Step Size:    0.412E-03 s, Total Time:       1.20 s
       Pressure Iterations:      1
       Maximum Velocity Error:  0.11E-15 on Mesh   2 at (  76   1   1)
       Maximum Pressure Error:  0.61E+06 on Mesh   1 at (  21   1  25)
       ---------------------------------------------------------------
       Mesh    1
       Max CFL number:  0.32E+00 at (  20,   1,  25)
       Max divergence:  0.32E-12 at (  18,   1,  19)
       Min divergence: -0.37E-12 at (  75,   1,  30)
       Max VN number:   0.24E-01 at (  70,   1,  37)
       Mesh    2
       Max CFL number:  0.49E+00 at (  25,   1,  14)
       Max divergence:  0.37E-12 at (  59,   1,  34)
       Min divergence: -0.44E-12 at (  25,   1,  32)
       Max VN number:   0.24E-01 at (   6,   1,   6)
       Mesh    3
       Max CFL number:  0.46E+00 at (  13,   1,   8)
       Max divergence:  0.44E-12 at (  35,   1,  37)
       Min divergence: -0.42E-12 at (  12,   1,   2)
       Max VN number:   0.24E-01 at (   8,   1,   6)
       Mesh    4
       Max CFL number:  0.21E+00 at (   1,   1,  32)
       Max divergence:  0.29E-12 at (   3,   1,  26)
       Min divergence: -0.29E-12 at (  26,   1,  14)
       Max VN number:   0.24E-01 at (   1,   1,   6)
 
       Time Step    1900   June 26, 2020  16:19:03
       Step Size:    0.412E-03 s, Total Time:       1.24 s
       Pressure Iterations:      1
       Maximum Velocity Error:  0.56E-16 on Mesh   3 at (  76   1  33)
       Maximum Pressure Error:  0.61E+06 on Mesh   1 at (  21   1  25)
       ---------------------------------------------------------------
       Mesh    1
       Max CFL number:  0.33E+00 at (  20,   1,  25)
       Max divergence:  0.32E-12 at (  18,   1,  19)
       Min divergence: -0.38E-12 at (  75,   1,  30)
       Max VN number:   0.24E-01 at (  70,   1,  37)
       Mesh    2
       Max CFL number:  0.50E+00 at (  25,   1,  27)
       Max divergence:  0.42E-12 at (  32,   1,  30)
       Min divergence: -0.47E-12 at (  25,   1,  32)
       Max VN number:   0.24E-01 at (   6,   1,   6)
       Mesh    3
       Max CFL number:  0.50E+00 at (  26,   1,   6)
       Max divergence:  0.61E-12 at (  20,   1,   7)
       Min divergence: -0.65E-12 at (  23,   1,   4)
       Max VN number:   0.24E-01 at (   8,   1,   6)
       Mesh    4
       Max CFL number:  0.26E+00 at (   1,   1,   7)
       Max divergence:  0.28E-12 at (   3,   1,   9)
       Min divergence: -0.30E-12 at (  12,   1,  38)
       Max VN number:   0.24E-01 at (   1,   1,  14)
 
       Time Step    2000   June 26, 2020  16:19:07
       Step Size:    0.370E-03 s, Total Time:       1.27 s
       Pressure Iterations:      1
       Maximum Velocity Error:  0.56E-16 on Mesh   2 at (  76   1  12)
       Maximum Pressure Error:  0.62E+06 on Mesh   1 at (  21   1  25)
       ---------------------------------------------------------------
       Mesh    1
       Max CFL number:  0.30E+00 at (  20,   1,  25)
       Max divergence:  0.32E-12 at (  18,   1,  19)
       Min divergence: -0.40E-12 at (  75,   1,  30)
       Max VN number:   0.21E-01 at (  70,   1,  37)
       Mesh    2
       Max CFL number:  0.46E+00 at (  25,   1,  14)
       Max divergence:  0.56E-12 at (  54,   1,  25)
       Min divergence: -0.55E-12 at (  61,   1,   8)
       Max VN number:   0.21E-01 at (   6,   1,   6)
       Mesh    3
       Max CFL number:  0.49E+00 at (  42,   1,   1)
       Max divergence:  0.58E-12 at (  74,   1,  38)
       Min divergence: -0.55E-12 at (  73,   1,  39)
       Max VN number:   0.21E-01 at (   8,   1,   6)
       Mesh    4
       Max CFL number:  0.34E+00 at (   9,   1,   3)
       Max divergence:  0.41E-12 at (   5,   1,   2)
       Min divergence: -0.43E-12 at (   6,   1,   2)
       Max VN number:   0.21E-01 at (   3,   1,   6)
 
       Time Step    2100   June 26, 2020  16:19:10
       Step Size:    0.370E-03 s, Total Time:       1.31 s
       Pressure Iterations:      1
       Maximum Velocity Error:  0.28E-16 on Mesh   3 at (  76   1  14)
       Maximum Pressure Error:  0.64E+06 on Mesh   1 at (  21   1  25)
       ---------------------------------------------------------------
       Mesh    1
       Max CFL number:  0.30E+00 at (  20,   1,  25)
       Max divergence:  0.37E-12 at (  18,   1,  19)
       Min divergence: -0.37E-12 at (  75,   1,  19)
       Max VN number:   0.21E-01 at (  70,   1,  37)
       Mesh    2
       Max CFL number:  0.48E+00 at (  44,   1,  13)
       Max divergence:  0.72E-12 at (  74,   1,   9)
       Min divergence: -0.52E-12 at (  71,   1,  10)
       Max VN number:   0.21E-01 at (   6,   1,   6)
       Mesh    3
       Max CFL number:  0.47E+00 at (   8,   1,   6)
       Max divergence:  0.59E-12 at (  69,   1,   1)
       Min divergence: -0.77E-12 at (  60,   1,   1)
       Max VN number:   0.21E-01 at (   2,   1,   7)
       Mesh    4
       Max CFL number:  0.41E+00 at (   4,   1,  39)
       Max divergence:  0.56E-12 at (   7,   1,   2)
       Min divergence: -0.65E-12 at (  14,   1,  40)
       Max VN number:   0.21E-01 at (   9,   1,   6)
 
       Time Step    2200   June 26, 2020  16:19:14
       Step Size:    0.332E-03 s, Total Time:       1.35 s
       Pressure Iterations:      1
       Maximum Velocity Error:  0.11E-15 on Mesh   3 at (  76   1   6)
       Maximum Pressure Error:  0.69E+06 on Mesh   1 at (  21   1  25)
       ---------------------------------------------------------------
       Mesh    1
       Max CFL number:  0.28E+00 at (  20,   1,  25)
       Max divergence:  0.29E-12 at (  31,   1,  14)
       Min divergence: -0.35E-12 at (  75,   1,  19)
       Max VN number:   0.19E-01 at (  70,   1,  37)
       Mesh    2
       Max CFL number:  0.47E+00 at (  25,   1,  27)
       Max divergence:  0.54E-12 at (  48,   1,  10)
       Min divergence: -0.44E-12 at (  25,   1,  32)
       Max VN number:   0.19E-01 at (   6,   1,   6)
       Mesh    3
       Max CFL number:  0.43E+00 at (  14,   1,   7)
       Max divergence:  0.39E-12 at (  30,   1,  13)
       Min divergence: -0.50E-12 at (  27,   1,   1)
       Max VN number:   0.19E-01 at (  17,   1,   6)
       Mesh    4
       Max CFL number:  0.42E+00 at (   2,   1,   2)
       Max divergence:  0.63E-12 at (   4,   1,   2)
       Min divergence: -0.62E-12 at (   5,   1,   2)
       Max VN number:   0.19E-01 at (  11,   1,   6)
 
       Time Step    2300   June 26, 2020  16:19:17
       Step Size:    0.298E-03 s, Total Time:       1.38 s
       Pressure Iterations:      1
       Maximum Velocity Error:  0.56E-16 on Mesh   3 at (  76   1   5)
       Maximum Pressure Error:  0.80E+06 on Mesh   1 at (  21   1  25)
       ---------------------------------------------------------------
       Mesh    1
       Max CFL number:  0.25E+00 at (  20,   1,  25)
       Max divergence:  0.31E-12 at (  31,   1,  14)
       Min divergence: -0.39E-12 at (  75,   1,  19)
       Max VN number:   0.17E-01 at (  70,   1,  37)
       Mesh    2
       Max CFL number:  0.47E+00 at (  25,   1,  14)
       Max divergence:  0.61E-12 at (  68,   1,  13)
       Min divergence: -0.44E-12 at (  61,   1,   4)
       Max VN number:   0.17E-01 at (   6,   1,   6)
       Mesh    3
       Max CFL number:  0.37E+00 at (  69,   1,  35)
       Max divergence:  0.50E-12 at (  46,   1,   5)
       Min divergence: -0.53E-12 at (  43,   1,   3)
       Max VN number:   0.17E-01 at (  11,   1,  11)
       Mesh    4
       Max CFL number:  0.40E+00 at (  21,   1,   1)
       Max divergence:  0.63E-12 at (  13,   1,   1)
       Min divergence: -0.97E-12 at (  14,   1,   1)
       Max VN number:   0.17E-01 at (  29,   1,   6)
 
       Time Step    2400   June 26, 2020  16:19:21
       Step Size:    0.298E-03 s, Total Time:       1.41 s
       Pressure Iterations:      1
       Maximum Velocity Error:  0.28E-16 on Mesh   3 at (  76   1  24)
       Maximum Pressure Error:  0.91E+06 on Mesh   1 at (  21   1  25)
       ---------------------------------------------------------------
       Mesh    1
       Max CFL number:  0.25E+00 at (  20,   1,  25)
       Max divergence:  0.33E-12 at (  10,   1,  25)
       Min divergence: -0.40E-12 at (  75,   1,  19)
       Max VN number:   0.17E-01 at (  70,   1,  37)
       Mesh    2
       Max CFL number:  0.48E+00 at (  25,   1,  27)
       Max divergence:  0.55E-12 at (  31,   1,  23)
       Min divergence: -0.47E-12 at (  28,   1,  27)
       Max VN number:   0.17E-01 at (   6,   1,   6)
       Mesh    3
       Max CFL number:  0.38E+00 at (  55,   1,   8)
       Max divergence:  0.50E-12 at (   6,   1,  21)
       Min divergence: -0.58E-12 at (  50,   1,   2)
       Max VN number:   0.17E-01 at (  11,   1,  11)
       Mesh    4
       Max CFL number:  0.41E+00 at (  41,   1,   1)
       Max divergence:  0.53E-12 at (  40,   1,   1)
       Min divergence: -0.95E-12 at (  41,   1,   1)
       Max VN number:   0.17E-01 at (  46,   1,   6)
 
       Time Step    2500   June 26, 2020  16:19:24
       Step Size:    0.268E-03 s, Total Time:       1.43 s
       Pressure Iterations:      1
       Maximum Velocity Error:  0.56E-16 on Mesh   2 at (  76   1  38)
       Maximum Pressure Error:  0.15E+07 on Mesh   1 at (  21   1  25)
       ---------------------------------------------------------------
       Mesh    1
       Max CFL number:  0.23E+00 at (  20,   1,  25)
       Max divergence:  0.34E-12 at (  10,   1,  25)
       Min divergence: -0.42E-12 at (  75,   1,  19)
       Max VN number:   0.16E-01 at (  70,   1,  37)
       Mesh    2
       Max CFL number:  0.45E+00 at (  25,   1,  27)
       Max divergence:  0.54E-12 at (  36,   1,  21)
       Min divergence: -0.57E-12 at (  25,   1,  27)
       Max VN number:   0.16E-01 at (   6,   1,   6)
       Mesh    3
       Max CFL number:  0.34E+00 at (  14,   1,   9)
       Max divergence:  0.74E-12 at (  67,   1,   6)
       Min divergence: -0.77E-12 at (  66,   1,   5)
       Max VN number:   0.16E-01 at (  11,   1,  11)
       Mesh    4
       Max CFL number:  0.37E+00 at (  56,   1,   1)
       Max divergence:  0.50E-12 at (  66,   1,   2)
       Min divergence: -0.63E-12 at (  65,   1,   2)
       Max VN number:   0.16E-01 at (  66,   1,   6)
 
       Time Step    2600   June 26, 2020  16:19:28
       Step Size:    0.268E-03 s, Total Time:       1.46 s
       Pressure Iterations:      1
       Maximum Velocity Error:  0.00E+00 on Mesh   1 at (  76   1  40)
       Maximum Pressure Error:  0.14E+07 on Mesh   1 at (  21   1  25)
       ---------------------------------------------------------------
       Mesh    1
       Max CFL number:  0.23E+00 at (  20,   1,  25)
       Max divergence:  0.34E-12 at (  10,   1,  34)
       Min divergence: -0.35E-12 at (  75,   1,  19)
       Max VN number:   0.16E-01 at (  70,   1,  37)
       Mesh    2
       Max CFL number:  0.47E+00 at (  25,   1,  14)
       Max divergence:  0.55E-12 at (  41,   1,  27)
       Min divergence: -0.64E-12 at (  29,   1,  14)
       Max VN number:   0.16E-01 at (   6,   1,   6)
       Mesh    3
       Max CFL number:  0.34E+00 at (  27,   1,  12)
       Max divergence:  0.56E-12 at (  63,   1,  16)
       Min divergence: -0.57E-12 at (  74,   1,   2)
       Max VN number:   0.16E-01 at (  11,   1,  11)
       Mesh    4
       Max CFL number:  0.36E+00 at (  75,   1,   1)
       Max divergence:  0.62E-12 at (  34,   1,  39)
       Min divergence: -0.72E-12 at (  74,   1,   1)
       Max VN number:   0.16E-01 at (  74,   1,   6)
 
       Time Step    2700   June 26, 2020  16:19:32
       Step Size:    0.268E-03 s, Total Time:       1.49 s
       Pressure Iterations:      1
       Maximum Velocity Error:  0.56E-16 on Mesh   1 at (  76   1   8)
       Maximum Pressure Error:  0.11E+07 on Mesh   1 at (  21   1  25)
       ---------------------------------------------------------------
       Mesh    1
       Max CFL number:  0.23E+00 at (  20,   1,  25)
       Max divergence:  0.33E-12 at (  18,   1,  19)
       Min divergence: -0.40E-12 at (  75,   1,  19)
       Max VN number:   0.16E-01 at (  70,   1,  37)
       Mesh    2
       Max CFL number:  0.46E+00 at (  34,   1,  14)
       Max divergence:  0.53E-12 at (  67,   1,   7)
       Min divergence: -0.61E-12 at (  47,   1,  30)
       Max VN number:   0.16E-01 at (   6,   1,   6)
       Mesh    3
       Max CFL number:  0.33E+00 at (  16,   1,  32)
       Max divergence:  0.50E-12 at (  39,   1,  13)
       Min divergence: -0.44E-12 at (  48,   1,  16)
       Max VN number:   0.16E-01 at (  11,   1,  11)
       Mesh    4
       Max CFL number:  0.34E+00 at (  47,   1,  38)
       Max divergence:  0.67E-12 at (  13,   1,   5)
       Min divergence: -0.58E-12 at (  55,   1,  39)
       Max VN number:   0.16E-01 at (  24,   1,   7)
 
       Time Step    2800   June 26, 2020  16:19:37
       Step Size:    0.268E-03 s, Total Time:       1.51 s
       Pressure Iterations:      1
       Maximum Velocity Error:  0.11E-15 on Mesh   3 at (  76   1  35)
       Maximum Pressure Error:  0.13E+07 on Mesh   1 at (  21   1  25)
       ---------------------------------------------------------------
       Mesh    1
       Max CFL number:  0.23E+00 at (  20,   1,  25)
       Max divergence:  0.35E-12 at (  18,   1,  19)
       Min divergence: -0.40E-12 at (  75,   1,  19)
       Max VN number:   0.16E-01 at (  70,   1,  37)
       Mesh    2
       Max CFL number:  0.49E+00 at (  25,   1,  27)
       Max divergence:  0.91E-12 at (  33,   1,  15)
       Min divergence: -0.97E-12 at (  31,   1,  22)
       Max VN number:   0.16E-01 at (   6,   1,   6)
       Mesh    3
       Max CFL number:  0.39E+00 at (   4,   1,  10)
       Max divergence:  0.50E-12 at (   6,   1,  15)
       Min divergence: -0.53E-12 at (  52,   1,  19)
       Max VN number:   0.16E-01 at (  11,   1,  11)
       Mesh    4
       Max CFL number:  0.35E+00 at (  65,   1,  39)
       Max divergence:  0.64E-12 at (  32,   1,   4)
       Min divergence: -0.61E-12 at (  73,   1,  39)
       Max VN number:   0.16E-01 at (  34,   1,   7)
 
       Time Step    2900   June 26, 2020  16:19:40
       Step Size:    0.241E-03 s, Total Time:       1.54 s
       Pressure Iterations:      1
       Maximum Velocity Error:  0.56E-16 on Mesh   1 at (  76   1  40)
       Maximum Pressure Error:  0.12E+07 on Mesh   1 at (  21   1  25)
       ---------------------------------------------------------------
       Mesh    1
       Max CFL number:  0.21E+00 at (  20,   1,  25)
       Max divergence:  0.37E-12 at (  18,   1,  19)
       Min divergence: -0.39E-12 at (  75,   1,  30)
       Max VN number:   0.14E-01 at (  70,   1,  37)
       Mesh    2
       Max CFL number:  0.41E+00 at (  25,   1,  27)
       Max divergence:  0.70E-12 at (  34,   1,  21)
       Min divergence: -0.80E-12 at (  25,   1,  27)
       Max VN number:   0.14E-01 at (   6,   1,   6)
       Mesh    3
       Max CFL number:  0.33E+00 at (   6,   1,  10)
       Max divergence:  0.55E-12 at (  62,   1,  12)
       Min divergence: -0.46E-12 at (  18,   1,   1)
       Max VN number:   0.14E-01 at (  12,   1,  10)
       Mesh    4
       Max CFL number:  0.32E+00 at (  46,   1,   5)
       Max divergence:  0.67E-12 at (  43,   1,   4)
       Min divergence: -0.65E-12 at (  44,   1,   4)
       Max VN number:   0.14E-01 at (  48,   1,   7)
 
       Time Step    3000   June 26, 2020  16:19:44
       Step Size:    0.265E-03 s, Total Time:       1.56 s
       Pressure Iterations:      1
       Maximum Velocity Error:  0.11E-15 on Mesh   2 at (  76   1  30)
       Maximum Pressure Error:  0.10E+07 on Mesh   2 at (  27   1  16)
       ---------------------------------------------------------------
       Mesh    1
       Max CFL number:  0.23E+00 at (  20,   1,  25)
       Max divergence:  0.34E-12 at (  18,   1,  19)
       Min divergence: -0.43E-12 at (  75,   1,  19)
       Max VN number:   0.15E-01 at (  70,   1,  37)
       Mesh    2
       Max CFL number:  0.46E+00 at (  25,   1,  14)
       Max divergence:  0.67E-12 at (  31,   1,  20)
       Min divergence: -0.67E-12 at (  69,   1,  31)
       Max VN number:   0.15E-01 at (   6,   1,   6)
       Mesh    3
       Max CFL number:  0.40E+00 at (   3,   1,  32)
       Max divergence:  0.44E-12 at (  71,   1,  16)
       Min divergence: -0.54E-12 at (  73,   1,  15)
       Max VN number:   0.15E-01 at (  11,   1,  11)
       Mesh    4
       Max CFL number:  0.35E+00 at (  59,   1,   2)
       Max divergence:  0.79E-12 at (  60,   1,   1)
       Min divergence: -0.95E-12 at (  61,   1,   1)
       Max VN number:   0.15E-01 at (  70,   1,   7)
 
       Time Step    3100   June 26, 2020  16:19:47
       Step Size:    0.265E-03 s, Total Time:       1.59 s
       Pressure Iterations:      1
       Maximum Velocity Error:  0.28E-16 on Mesh   3 at (  76   1  31)
       Maximum Pressure Error:  0.15E+07 on Mesh   1 at (  21   1  25)
       ---------------------------------------------------------------
       Mesh    1
       Max CFL number:  0.23E+00 at (  20,   1,  25)
       Max divergence:  0.39E-12 at (  18,   1,  19)
       Min divergence: -0.42E-12 at (  75,   1,  19)
       Max VN number:   0.15E-01 at (  70,   1,  37)
       Mesh    2
       Max CFL number:  0.47E+00 at (  34,   1,  14)
       Max divergence:  0.63E-12 at (  31,   1,  14)
       Min divergence: -0.48E-12 at (  37,   1,  26)
       Max VN number:   0.15E-01 at (   6,   1,   6)
       Mesh    3
       Max CFL number:  0.41E+00 at (   8,   1,  32)
       Max divergence:  0.41E-12 at (  36,   1,   4)
       Min divergence: -0.42E-12 at (  20,   1,  30)
       Max VN number:   0.15E-01 at (  11,   1,  11)
       Mesh    4
       Max CFL number:  0.34E+00 at (  72,   1,   1)
       Max divergence:  0.50E-12 at (  16,   1,  18)
       Min divergence: -0.44E-12 at (  48,   1,  30)
       Max VN number:   0.15E-01 at (  74,   1,   7)
 
       Time Step    3200   June 26, 2020  16:19:51
       Step Size:    0.265E-03 s, Total Time:       1.62 s
       Pressure Iterations:      1
       Maximum Velocity Error:  0.11E-15 on Mesh   2 at (  76   1   2)
       Maximum Pressure Error:  0.11E+07 on Mesh   2 at (  27   1  25)
       ---------------------------------------------------------------
       Mesh    1
       Max CFL number:  0.23E+00 at (  20,   1,  25)
       Max divergence:  0.34E-12 at (  18,   1,  19)
       Min divergence: -0.44E-12 at (  75,   1,  30)
       Max VN number:   0.15E-01 at (  70,   1,  37)
       Mesh    2
       Max CFL number:  0.48E+00 at (  25,   1,  27)
       Max divergence:  0.67E-12 at (  25,   1,  26)
       Min divergence: -0.58E-12 at (  58,   1,  27)
       Max VN number:   0.15E-01 at (   6,   1,   6)
       Mesh    3
       Max CFL number:  0.42E+00 at (   5,   1,  12)
       Max divergence:  0.67E-12 at (   6,   1,   8)
       Min divergence: -0.45E-12 at (   9,   1,   9)
       Max VN number:   0.15E-01 at (  11,   1,  11)
       Mesh    4
       Max CFL number:  0.33E+00 at (  47,   1,  35)
       Max divergence:  0.44E-12 at (  57,   1,  30)
       Min divergence: -0.39E-12 at (  50,   1,  29)
       Max VN number:   0.15E-01 at (  74,   1,   7)
 
       Time Step    3300   June 26, 2020  16:19:54
       Step Size:    0.238E-03 s, Total Time:       1.64 s
       Pressure Iterations:      1
       Maximum Velocity Error:  0.11E-15 on Mesh   3 at (  76   1  35)
       Maximum Pressure Error:  0.13E+07 on Mesh   1 at (  21   1  25)
       ---------------------------------------------------------------
       Mesh    1
       Max CFL number:  0.21E+00 at (  20,   1,  25)
       Max divergence:  0.36E-12 at (  60,   1,  33)
       Min divergence: -0.45E-12 at (  20,   1,  25)
       Max VN number:   0.14E-01 at (  70,   1,  37)
       Mesh    2
       Max CFL number:  0.41E+00 at (  25,   1,  27)
       Max divergence:  0.72E-12 at (  25,   1,  26)
       Min divergence: -0.85E-12 at (  25,   1,  27)
       Max VN number:   0.14E-01 at (   6,   1,   6)
       Mesh    3
       Max CFL number:  0.38E+00 at (  16,   1,  12)
       Max divergence:  0.74E-12 at (  60,   1,   4)
       Min divergence: -0.49E-12 at (  14,   1,   8)
       Max VN number:   0.14E-01 at (  21,   1,   7)
       Mesh    4
       Max CFL number:  0.30E+00 at (  61,   1,  36)
       Max divergence:  0.58E-12 at (  72,   1,  31)
       Min divergence: -0.50E-12 at (  60,   1,  29)
       Max VN number:   0.14E-01 at (  74,   1,   7)
 
       Time Step    3400   June 26, 2020  16:19:57
       Step Size:    0.262E-03 s, Total Time:       1.67 s
       Pressure Iterations:      1
       Maximum Velocity Error:  0.56E-16 on Mesh   1 at (  76   1   7)
       Maximum Pressure Error:  0.11E+07 on Mesh   1 at (  21   1  25)
       ---------------------------------------------------------------
       Mesh    1
       Max CFL number:  0.23E+00 at (  20,   1,  25)
       Max divergence:  0.34E-12 at (  18,   1,  19)
       Min divergence: -0.38E-12 at (  75,   1,  30)
       Max VN number:   0.15E-01 at (  70,   1,  37)
       Mesh    2
       Max CFL number:  0.45E+00 at (  25,   1,  14)
       Max divergence:  0.55E-12 at (  56,   1,  10)
       Min divergence: -0.57E-12 at (  31,   1,  19)
       Max VN number:   0.15E-01 at (   6,   1,   6)
       Mesh    3
       Max CFL number:  0.41E+00 at (  20,   1,  12)
       Max divergence:  0.87E-12 at (  24,   1,   6)
       Min divergence: -0.47E-12 at (  23,   1,   6)
       Max VN number:   0.15E-01 at (  29,   1,   6)
       Mesh    4
       Max CFL number:  0.32E+00 at (  75,   1,  37)
       Max divergence:  0.44E-12 at (   3,   1,  12)
       Min divergence: -0.49E-12 at (   6,   1,   1)
       Max VN number:   0.15E-01 at (  74,   1,   7)
 
       Time Step    3500   June 26, 2020  16:20:01
       Step Size:    0.262E-03 s, Total Time:       1.69 s
       Pressure Iterations:      1
       Maximum Velocity Error:  0.56E-16 on Mesh   1 at (  76   1   2)
       Maximum Pressure Error:  0.11E+07 on Mesh   1 at (  21   1  25)
       ---------------------------------------------------------------
       Mesh    1
       Max CFL number:  0.23E+00 at (  20,   1,  25)
       Max divergence:  0.37E-12 at (  18,   1,  19)
       Min divergence: -0.39E-12 at (  75,   1,  19)
       Max VN number:   0.15E-01 at (  70,   1,  37)
       Mesh    2
       Max CFL number:  0.47E+00 at (  25,   1,  14)
       Max divergence:  0.63E-12 at (  38,   1,  24)
       Min divergence: -0.54E-12 at (  38,   1,  25)
       Max VN number:   0.15E-01 at (   6,   1,   6)
       Mesh    3
       Max CFL number:  0.41E+00 at (   8,   1,  32)
       Max divergence:  0.40E-12 at (  30,   1,  15)
       Min divergence: -0.48E-12 at (  40,   1,  19)
       Max VN number:   0.15E-01 at (  31,   1,   6)
       Mesh    4
       Max CFL number:  0.35E+00 at (  10,   1,   8)
       Max divergence:  0.45E-12 at (  15,   1,   8)
       Min divergence: -0.44E-12 at (  13,   1,  13)
       Max VN number:   0.15E-01 at (  14,   1,   9)
 
       Time Step    3600   June 26, 2020  16:20:04
       Step Size:    0.262E-03 s, Total Time:       1.72 s
       Pressure Iterations:      1
       Maximum Velocity Error:  0.56E-16 on Mesh   1 at (  76   1  11)
       Maximum Pressure Error:  0.12E+07 on Mesh   1 at (  21   1  25)
       ---------------------------------------------------------------
       Mesh    1
       Max CFL number:  0.24E+00 at (  20,   1,  25)
       Max divergence:  0.37E-12 at (  18,   1,  19)
       Min divergence: -0.39E-12 at (  75,   1,  19)
       Max VN number:   0.15E-01 at (  70,   1,  37)
       Mesh    2
       Max CFL number:  0.45E+00 at (  25,   1,  27)
       Max divergence:  0.72E-12 at (  38,   1,  13)
       Min divergence: -0.83E-12 at (  31,   1,  23)
       Max VN number:   0.15E-01 at (   6,   1,   6)
       Mesh    3
       Max CFL number:  0.43E+00 at (   5,   1,  12)
       Max divergence:  0.53E-12 at (  10,   1,   7)
       Min divergence: -0.56E-12 at (  11,   1,   7)
       Max VN number:   0.15E-01 at (  31,   1,   6)
       Mesh    4
       Max CFL number:  0.37E+00 at (   1,   1,  33)
       Max divergence:  0.42E-12 at (  11,   1,  10)
       Min divergence: -0.48E-12 at (  30,   1,   1)
       Max VN number:   0.15E-01 at (  25,   1,   9)
 
       Time Step    3700   June 26, 2020  16:20:08
       Step Size:    0.236E-03 s, Total Time:       1.74 s
       Pressure Iterations:      1
       Maximum Velocity Error:  0.56E-16 on Mesh   1 at (  76   1   3)
       Maximum Pressure Error:  0.13E+07 on Mesh   1 at (  21   1  25)
       ---------------------------------------------------------------
       Mesh    1
       Max CFL number:  0.21E+00 at (  20,   1,  25)
       Max divergence:  0.36E-12 at (  10,   1,  34)
       Min divergence: -0.45E-12 at (  75,   1,  19)
       Max VN number:   0.14E-01 at (  70,   1,  37)
       Mesh    2
       Max CFL number:  0.41E+00 at (  25,   1,  27)
       Max divergence:  0.72E-12 at (  25,   1,  26)
       Min divergence: -0.97E-12 at (  25,   1,  27)
       Max VN number:   0.14E-01 at (   6,   1,   6)
       Mesh    3
       Max CFL number:  0.39E+00 at (  16,   1,  12)
       Max divergence:  0.61E-12 at (  16,   1,  12)
       Min divergence: -0.55E-12 at (  19,   1,  19)
       Max VN number:   0.14E-01 at (  31,   1,   6)
       Mesh    4
       Max CFL number:  0.33E+00 at (   5,   1,  33)
       Max divergence:  0.50E-12 at (  32,   1,   8)
       Min divergence: -0.41E-12 at (  36,   1,   1)
       Max VN number:   0.14E-01 at (  10,   1,  10)
 
       Time Step    3800   June 26, 2020  16:20:11
       Step Size:    0.259E-03 s, Total Time:       1.77 s
       Pressure Iterations:      1
       Maximum Velocity Error:  0.11E-15 on Mesh   3 at (  76   1   7)
       Maximum Pressure Error:  0.11E+07 on Mesh   1 at (  21   1  25)
       ---------------------------------------------------------------
       Mesh    1
       Max CFL number:  0.23E+00 at (  20,   1,  25)
       Max divergence:  0.36E-12 at (  10,   1,  25)
       Min divergence: -0.45E-12 at (  20,   1,  25)
       Max VN number:   0.15E-01 at (  70,   1,  37)
       Mesh    2
       Max CFL number:  0.44E+00 at (  49,   1,  13)
       Max divergence:  0.53E-12 at (  31,   1,  22)
       Min divergence: -0.72E-12 at (  32,   1,  21)
       Max VN number:   0.15E-01 at (   6,   1,   6)
       Mesh    3
       Max CFL number:  0.42E+00 at (  20,   1,  12)
       Max divergence:  0.51E-12 at (  30,   1,  15)
       Min divergence: -0.41E-12 at (  31,   1,  21)
       Max VN number:   0.15E-01 at (  31,   1,   6)
       Mesh    4
       Max CFL number:  0.38E+00 at (   1,   1,  11)
       Max divergence:  0.47E-12 at (   4,   1,  21)
       Min divergence: -0.58E-12 at (   4,   1,  22)
       Max VN number:   0.15E-01 at (  10,   1,  10)
 
       Time Step    3900   June 26, 2020  16:20:15
       Step Size:    0.234E-03 s, Total Time:       1.79 s
       Pressure Iterations:      1
       Maximum Velocity Error:  0.56E-16 on Mesh   1 at (  76   1  16)
       Maximum Pressure Error:  0.13E+07 on Mesh   1 at (  21   1  25)
       ---------------------------------------------------------------
       Mesh    1
       Max CFL number:  0.21E+00 at (  20,   1,  25)
       Max divergence:  0.39E-12 at (  18,   1,  19)
       Min divergence: -0.39E-12 at (  75,   1,  19)
       Max VN number:   0.14E-01 at (  70,   1,  37)
       Mesh    2
       Max CFL number:  0.43E+00 at (  25,   1,  14)
       Max divergence:  0.55E-12 at (  45,   1,  29)
       Min divergence: -0.59E-12 at (  36,   1,  22)
       Max VN number:   0.14E-01 at (   6,   1,   6)
       Mesh    3
       Max CFL number:  0.37E+00 at (  31,   1,  12)
       Max divergence:  0.55E-12 at (  73,   1,  13)
       Min divergence: -0.56E-12 at (  13,   1,  39)
       Max VN number:   0.14E-01 at (  31,   1,   6)
       Mesh    4
       Max CFL number:  0.34E+00 at (   3,   1,  10)
       Max divergence:  0.76E-12 at (  55,   1,   4)
       Min divergence: -0.53E-12 at (  56,   1,   4)
       Max VN number:   0.14E-01 at (  10,   1,  13)
 
       Time Step    4000   June 26, 2020  16:20:18
       Step Size:    0.257E-03 s, Total Time:       1.82 s
       Pressure Iterations:      1
       Maximum Velocity Error:  0.56E-16 on Mesh   1 at (  76   1   5)
       Maximum Pressure Error:  0.12E+07 on Mesh   1 at (  21   1  25)
       ---------------------------------------------------------------
       Mesh    1
       Max CFL number:  0.23E+00 at (  20,   1,  25)
       Max divergence:  0.35E-12 at (  18,   1,  19)
       Min divergence: -0.40E-12 at (  75,   1,  19)
       Max VN number:   0.15E-01 at (  70,   1,  37)
       Mesh    2
       Max CFL number:  0.44E+00 at (  25,   1,  27)
       Max divergence:  0.75E-12 at (  53,   1,  35)
       Min divergence: -0.68E-12 at (  31,   1,  15)
       Max VN number:   0.15E-01 at (   6,   1,   6)
       Mesh    3
       Max CFL number:  0.43E+00 at (   4,   1,  12)
       Max divergence:  0.50E-12 at (  25,   1,  39)
       Min divergence: -0.72E-12 at (  26,   1,  39)
       Max VN number:   0.15E-01 at (  31,   1,   6)
       Mesh    4
       Max CFL number:  0.38E+00 at (  23,   1,  10)
       Max divergence:  0.46E-12 at (  57,   1,  30)
       Min divergence: -0.50E-12 at (  24,   1,  15)
       Max VN number:   0.15E-01 at (  25,   1,  13)
 
       Time Step    4100   June 26, 2020  16:20:22
       Step Size:    0.257E-03 s, Total Time:       1.84 s
       Pressure Iterations:      1
       Maximum Velocity Error:  0.56E-16 on Mesh   1 at (  76   1  13)
       Maximum Pressure Error:  0.14E+07 on Mesh   1 at (  21   1  25)
       ---------------------------------------------------------------
       Mesh    1
       Max CFL number:  0.23E+00 at (  20,   1,  25)
       Max divergence:  0.41E-12 at (  31,   1,  14)
       Min divergence: -0.41E-12 at (  75,   1,  30)
       Max VN number:   0.15E-01 at (  70,   1,  37)
       Mesh    2
       Max CFL number:  0.46E+00 at (  25,   1,  27)
       Max divergence:  0.65E-12 at (  25,   1,  26)
       Min divergence: -0.85E-12 at (  25,   1,  27)
       Max VN number:   0.15E-01 at (   6,   1,   6)
       Mesh    3
       Max CFL number:  0.43E+00 at (  16,   1,  12)
       Max divergence:  0.47E-12 at (  47,   1,  39)
       Min divergence: -0.48E-12 at (  64,   1,  22)
       Max VN number:   0.15E-01 at (  31,   1,   6)
       Mesh    4
       Max CFL number:  0.38E+00 at (  55,   1,  34)
       Max divergence:  0.68E-12 at (  38,   1,  14)
       Min divergence: -0.52E-12 at (  35,   1,  15)
       Max VN number:   0.15E-01 at (  37,   1,  14)
 
       Time Step    4200   June 26, 2020  16:20:25
       Step Size:    0.257E-03 s, Total Time:       1.87 s
       Pressure Iterations:      1
       Maximum Velocity Error:  0.11E-15 on Mesh   3 at (  76   1   4)
       Maximum Pressure Error:  0.15E+07 on Mesh   1 at (  21   1  25)
       ---------------------------------------------------------------
       Mesh    1
       Max CFL number:  0.23E+00 at (  20,   1,  25)
       Max divergence:  0.40E-12 at (  10,   1,  25)
       Min divergence: -0.47E-12 at (  75,   1,  19)
       Max VN number:   0.15E-01 at (  70,   1,  37)
       Mesh    2
       Max CFL number:  0.44E+00 at (  49,   1,  13)
       Max divergence:  0.64E-12 at (  55,   1,   9)
       Min divergence: -0.55E-12 at (  59,   1,  12)
       Max VN number:   0.15E-01 at (   6,   1,   6)
       Mesh    3
       Max CFL number:  0.42E+00 at (  20,   1,  12)
       Max divergence:  0.56E-12 at (  14,   1,  13)
       Min divergence: -0.44E-12 at (  58,   1,  28)
       Max VN number:   0.15E-01 at (  31,   1,   6)
       Mesh    4
       Max CFL number:  0.39E+00 at (   1,   1,  12)
       Max divergence:  0.56E-12 at (  50,   1,  13)
       Min divergence: -0.55E-12 at (  52,   1,  12)
       Max VN number:   0.15E-01 at (  41,   1,  15)
 
       Time Step    4300   June 26, 2020  16:20:29
       Step Size:    0.231E-03 s, Total Time:       1.89 s
       Pressure Iterations:      1
       Maximum Velocity Error:  0.56E-16 on Mesh   1 at (  76   1  30)
       Maximum Pressure Error:  0.12E+07 on Mesh   1 at (  21   1  25)
       ---------------------------------------------------------------
       Mesh    1
       Max CFL number:  0.21E+00 at (  20,   1,  25)
       Max divergence:  0.39E-12 at (  18,   1,  19)
       Min divergence: -0.40E-12 at (  75,   1,  19)
       Max VN number:   0.13E-01 at (  70,   1,  37)
       Mesh    2
       Max CFL number:  0.44E+00 at (  25,   1,  14)
       Max divergence:  0.68E-12 at (  67,   1,   5)
       Min divergence: -0.63E-12 at (  35,   1,  24)
       Max VN number:   0.13E-01 at (   6,   1,   6)
       Mesh    3
       Max CFL number:  0.37E+00 at (  31,   1,  12)
       Max divergence:  0.61E-12 at (  11,   1,  39)
       Min divergence: -0.83E-12 at (  62,   1,  39)
       Max VN number:   0.13E-01 at (  31,   1,   6)
       Mesh    4
       Max CFL number:  0.35E+00 at (  12,   1,  11)
       Max divergence:  0.60E-12 at (  15,   1,  11)
       Min divergence: -0.45E-12 at (  71,   1,   2)
       Max VN number:   0.13E-01 at (  11,   1,  18)
 
       Time Step    4400   June 26, 2020  16:20:32
       Step Size:    0.254E-03 s, Total Time:       1.92 s
       Pressure Iterations:      1
       Maximum Velocity Error:  0.56E-16 on Mesh   1 at (  76   1   9)
       Maximum Pressure Error:  0.15E+07 on Mesh   1 at (  21   1  25)
       ---------------------------------------------------------------
       Mesh    1
       Max CFL number:  0.23E+00 at (  20,   1,  25)
       Max divergence:  0.36E-12 at (  50,   1,  30)
       Min divergence: -0.43E-12 at (  75,   1,  19)
       Max VN number:   0.15E-01 at (  70,   1,  37)
       Mesh    2
       Max CFL number:  0.43E+00 at (  25,   1,  27)
       Max divergence:  0.58E-12 at (  41,   1,  30)
       Min divergence: -0.63E-12 at (  29,   1,  15)
       Max VN number:   0.15E-01 at (   6,   1,   6)
       Mesh    3
       Max CFL number:  0.43E+00 at (   3,   1,  12)
       Max divergence:  0.55E-12 at (   2,   1,   9)
       Min divergence: -0.41E-12 at (   4,   1,  21)
       Max VN number:   0.15E-01 at (  31,   1,   6)
       Mesh    4
       Max CFL number:  0.38E+00 at (  15,   1,  11)
       Max divergence:  0.45E-12 at (  23,   1,  15)
       Min divergence: -0.55E-12 at (  42,   1,  29)
       Max VN number:   0.15E-01 at (  23,   1,  14)
 
       Time Step    4500   June 26, 2020  16:20:36
       Step Size:    0.254E-03 s, Total Time:       1.94 s
       Pressure Iterations:      1
       Maximum Velocity Error:  0.56E-16 on Mesh   1 at (  76   1   5)
       Maximum Pressure Error:  0.14E+07 on Mesh   1 at (  21   1  25)
       ---------------------------------------------------------------
       Mesh    1
       Max CFL number:  0.23E+00 at (  20,   1,  25)
       Max divergence:  0.41E-12 at (  31,   1,  14)
       Min divergence: -0.43E-12 at (  75,   1,  19)
       Max VN number:   0.15E-01 at (  70,   1,  37)
       Mesh    2
       Max CFL number:  0.46E+00 at (  25,   1,  27)
       Max divergence:  0.65E-12 at (  25,   1,  26)
       Min divergence: -0.61E-12 at (  53,   1,  28)
       Max VN number:   0.15E-01 at (   6,   1,   6)
       Mesh    3
       Max CFL number:  0.43E+00 at (  15,   1,  12)
       Max divergence:  0.50E-12 at (  21,   1,  18)
       Min divergence: -0.48E-12 at (  21,   1,  19)
       Max VN number:   0.15E-01 at (  31,   1,   6)
       Mesh    4
       Max CFL number:  0.38E+00 at (  57,   1,  34)
       Max divergence:  0.53E-12 at (  22,   1,  15)
       Min divergence: -0.47E-12 at (  33,   1,  14)
       Max VN number:   0.15E-01 at (  36,   1,   7)
 
       Time Step    4600   June 26, 2020  16:20:39
       Step Size:    0.254E-03 s, Total Time:       1.97 s
       Pressure Iterations:      1
       Maximum Velocity Error:  0.11E-15 on Mesh   3 at (  76   1   2)
       Maximum Pressure Error:  0.15E+07 on Mesh   1 at (  21   1  25)
       ---------------------------------------------------------------
       Mesh    1
       Max CFL number:  0.23E+00 at (  20,   1,  25)
       Max divergence:  0.40E-12 at (  10,   1,  25)
       Min divergence: -0.45E-12 at (  20,   1,  25)
       Max VN number:   0.15E-01 at (  70,   1,  37)
       Mesh    2
       Max CFL number:  0.44E+00 at (  48,   1,  13)
       Max divergence:  0.66E-12 at (  36,   1,  28)
       Min divergence: -0.50E-12 at (  41,   1,  25)
       Max VN number:   0.15E-01 at (   6,   1,   6)
       Mesh    3
       Max CFL number:  0.42E+00 at (  20,   1,  12)
       Max divergence:  0.61E-12 at (  30,   1,  17)
       Min divergence: -0.46E-12 at (  52,   1,  39)
       Max VN number:   0.15E-01 at (  31,   1,   6)
       Mesh    4
       Max CFL number:  0.39E+00 at (   1,   1,  12)
       Max divergence:  0.60E-12 at (   5,   1,  15)
       Min divergence: -0.45E-12 at (  45,   1,   5)
       Max VN number:   0.15E-01 at (  50,   1,  14)
 
       Time Step    4700   June 26, 2020  16:20:43
       Step Size:    0.254E-03 s, Total Time:       1.99 s
       Pressure Iterations:      1
       Maximum Velocity Error:  0.56E-16 on Mesh   1 at (  76   1  21)
       Maximum Pressure Error:  0.12E+07 on Mesh   1 at (  21   1  25)
       ---------------------------------------------------------------
       Mesh    1
       Max CFL number:  0.23E+00 at (  20,   1,  25)
       Max divergence:  0.37E-12 at (  18,   1,  19)
       Min divergence: -0.40E-12 at (  75,   1,  19)
       Max VN number:   0.15E-01 at (  70,   1,  37)
       Mesh    2
       Max CFL number:  0.49E+00 at (  25,   1,  14)
       Max divergence:  0.70E-12 at (  67,   1,   8)
       Min divergence: -0.67E-12 at (  34,   1,  23)
       Max VN number:   0.15E-01 at (   6,   1,   6)
       Mesh    3
       Max CFL number:  0.42E+00 at (  32,   1,  12)
       Max divergence:  0.54E-12 at (  47,   1,  15)
       Min divergence: -0.51E-12 at (  14,   1,  39)
       Max VN number:   0.15E-01 at (  31,   1,   6)
       Mesh    4
       Max CFL number:  0.39E+00 at (  54,   1,   8)
       Max divergence:  0.60E-12 at (   3,   1,  14)
       Min divergence: -0.52E-12 at (  14,   1,  15)
       Max VN number:   0.15E-01 at (  11,   1,  16)
 
       Time Step    4721   June 26, 2020  16:20:43
       Step Size:    0.126E-03 s, Total Time:       2.00 s
       Pressure Iterations:      1
       Maximum Velocity Error:  0.56E-16 on Mesh   1 at (  76   1  31)
       Maximum Pressure Error:  0.12E+07 on Mesh   1 at (  21   1  25)
       ---------------------------------------------------------------
       Mesh    1
       Max CFL number:  0.12E+00 at (  20,   1,  25)
       Max divergence:  0.36E-12 at (  18,   1,  19)
       Min divergence: -0.38E-12 at (  75,   1,  19)
       Max VN number:   0.73E-02 at (  70,   1,  37)
       Mesh    2
       Max CFL number:  0.23E+00 at (  34,   1,  14)
       Max divergence:  0.74E-12 at (  32,   1,  14)
       Min divergence: -0.68E-12 at (  46,   1,  30)
       Max VN number:   0.73E-02 at (   6,   1,   6)
       Mesh    3
       Max CFL number:  0.21E+00 at (  42,   1,  12)
       Max divergence:  0.49E-12 at (  47,   1,  15)
       Min divergence: -0.44E-12 at (   4,   1,  21)
       Max VN number:   0.73E-02 at (  31,   1,   6)
       Mesh    4
       Max CFL number:  0.19E+00 at (  57,   1,   7)
       Max divergence:  0.67E-12 at (  69,   1,  10)
       Min divergence: -0.44E-12 at (  70,   1,  10)
       Max VN number:   0.73E-02 at (  11,   1,  16)
 


 Time Stepping Wall Clock Time (s):      177.146
 Total Elapsed Wall Clock Time (s):      178.140

STOP: FDS completed successfully (CHID: dancing_eddies_uglmat)
