
 Fire Dynamics Simulator

 Current Date     : June 26, 2020  16:17:47
 Revision         : -AMG
 Revision Date    : Fri Jun 26 15:19:14 2020 +0200
 Compiler         : Intel ifort 19.0.5.281
 Compilation Date : Jun 26, 2020 15:25:32

 MPI Enabled;    Number of MPI Processes:       8
 OpenMP Enabled; Number of OpenMP Threads:      2

 MPI version: 3.1
 MPI library version: Intel(R) MPI Library 2018 Update 1 for Linux* OS


 Job TITLE        : Flow through a duct, test of structured ScaRC solver
 Job ID string    : duct_flow_scarc


 Grid Dimensions, Mesh     1

   Cells in the X Direction            16
   Cells in the Y Direction            16
   Cells in the Z Direction            16
   Number of Grid Cells              4096


 Physical Dimensions, Mesh     1

   Length (m)                       3.200
   Width  (m)                       3.200
   Height (m)                       3.200
   Initial Time Step (s)            0.125

 Grid Dimensions, Mesh     2

   Cells in the X Direction            16
   Cells in the Y Direction            16
   Cells in the Z Direction            16
   Number of Grid Cells              4096


 Physical Dimensions, Mesh     2

   Length (m)                       3.200
   Width  (m)                       3.200
   Height (m)                       3.200
   Initial Time Step (s)            0.125

 Grid Dimensions, Mesh     3

   Cells in the X Direction            16
   Cells in the Y Direction            16
   Cells in the Z Direction            16
   Number of Grid Cells              4096


 Physical Dimensions, Mesh     3

   Length (m)                       3.200
   Width  (m)                       3.200
   Height (m)                       3.200
   Initial Time Step (s)            0.125

 Grid Dimensions, Mesh     4

   Cells in the X Direction            16
   Cells in the Y Direction            16
   Cells in the Z Direction            16
   Number of Grid Cells              4096


 Physical Dimensions, Mesh     4

   Length (m)                       3.200
   Width  (m)                       3.200
   Height (m)                       3.200
   Initial Time Step (s)            0.125

 Grid Dimensions, Mesh     5

   Cells in the X Direction            16
   Cells in the Y Direction            16
   Cells in the Z Direction            16
   Number of Grid Cells              4096


 Physical Dimensions, Mesh     5

   Length (m)                       3.200
   Width  (m)                       3.200
   Height (m)                       3.200
   Initial Time Step (s)            0.125

 Grid Dimensions, Mesh     6

   Cells in the X Direction            16
   Cells in the Y Direction            16
   Cells in the Z Direction            16
   Number of Grid Cells              4096


 Physical Dimensions, Mesh     6

   Length (m)                       3.200
   Width  (m)                       3.200
   Height (m)                       3.200
   Initial Time Step (s)            0.125

 Grid Dimensions, Mesh     7

   Cells in the X Direction            16
   Cells in the Y Direction            16
   Cells in the Z Direction            16
   Number of Grid Cells              4096


 Physical Dimensions, Mesh     7

   Length (m)                       3.200
   Width  (m)                       3.200
   Height (m)                       3.200
   Initial Time Step (s)            0.125

 Grid Dimensions, Mesh     8

   Cells in the X Direction            16
   Cells in the Y Direction            16
   Cells in the Z Direction            16
   Number of Grid Cells              4096


 Physical Dimensions, Mesh     8

   Length (m)                       3.200
   Width  (m)                       3.200
   Height (m)                       3.200
   Initial Time Step (s)            0.125

Total Number of Grid Cells         32768


 Miscellaneous Parameters

   Simulation Start Time (s)          0.0
   Simulation End Time (s)           60.0
   LES Calculation
   Eddy Viscosity:           Deardorff Model (C_DEARDORFF = 0.10)
   Near-wall Eddy Viscosity: Smagorinsky with Van Driest damping (C_SMAGORINSKY = 0.20)
   Turbulent Prandtl Number:         0.50
   Turbulent Schmidt Number:         0.50
   Ambient Temperature (C):         20.00


 Mass Fraction Transformation Matrix to Convert Species Mixtures (Columns) to Primitive Species (Rows)

                         AIR     
   NITROGEN              0.762470
   OXYGEN                0.230997
   CARBON DIOXIDE        0.000591
   WATER VAPOR           0.005941


 Primitive Species Information

   NITROGEN
   Gas Species
   Molecular Weight (g/mol)            28.01340
   Ambient Density (kg/m^3)            1.165
   Enthalpy of Formation (J/kg)        0.00E+00

   OXYGEN
   Gas Species
   Molecular Weight (g/mol)            31.99880
   Ambient Density (kg/m^3)            1.330
   Enthalpy of Formation (J/kg)        0.00E+00

   CARBON DIOXIDE
   Gas Species
   Molecular Weight (g/mol)            44.00950
   Ambient Density (kg/m^3)            1.830
   Enthalpy of Formation (J/kg)       -8.94E+06

   WATER VAPOR
   Gas Species
   Molecular Weight (g/mol)            18.01528
   Ambient Density (kg/m^3)            0.749
   Enthalpy of Formation (J/kg)       -1.34E+07


 Tracked (Lumped) Species Information

   AIR
   Molecular Weight (g/mol)            28.75199
   Ambient Density (kg/m^3)            1.195
   Initial Mass Fraction               1.000
   Enthalpy of Formation (J/kg)     -8.50E+04

   Sub Species                    Mass Fraction     Mole Fraction
   NITROGEN                       7.624701E-01      7.825730E-01
   OXYGEN                         2.309974E-01      2.075589E-01
   CARBON DIOXIDE                 5.914651E-04      3.864120E-04
   WATER VAPOR                    5.940984E-03      9.481679E-03
 
     Viscosity (kg/m/s) Ambient,  293 K:  1.80E-05
                                  500 K:  2.61E-05
                                 1000 K:  4.13E-05
                                 1500 K:  5.37E-05
   Therm. Cond. (W/m/K) Ambient,  293 K:  2.56E-02
                                  500 K:  3.81E-02
                                 1000 K:  6.69E-02
                                 1500 K:  9.25E-02
        Enthalpy (J/kg) Ambient,  293 K: -9.01E+04
                                  500 K:  1.22E+05
                                 1000 K:  6.72E+05
                                 1500 K:  1.27E+06
    Spec. Heat (J/kg/K) Ambient,  293 K:  1.02E+03
                                  500 K:  1.04E+03
                                 1000 K:  1.16E+03
                                 1500 K:  1.23E+03
   Diff. Coeff. (m^2/s) Ambient,  293 K:  1.99E-05
                                  500 K:  4.96E-05
                                 1000 K:  1.58E-04
                                 1500 K:  3.09E-04


 Material Information


 Surface Conditions

   0 INERT (DEFAULT)

   1 DUCT

   2 OPEN
     Passive Vent to Atmosphere

   3 MIRROR
     Symmetry Plane

   4 INTERPOLATED

   5 PERIODIC

   6 HVAC

   7 MASSLESS TRACER

   8 DROPLET

   9 EVACUATION_OUTFLOW
     Normal Velocity (m/s)         0.000

  10 MASSLESS TARGET

  11 PERIODIC WIND


 Device Coordinates

     1 Coords:      1.000000      1.500000      1.500000, Make: null, ID: flow_in, Quantity: VOLUME FLOW +
     2 Coords:      1.000000      1.500000      4.500000, Make: null, ID: flow_out, Quantity: VOLUME FLOW -
     3 Coords:      0.000000      0.000000      0.000000, Make: null, ID: error, Quantity: MAXIMUM VELOCITY ERROR
     4 Coords:      0.000000      0.000000      0.000000, Make: null, ID: iter, Quantity: PRESSURE ITERATIONS
     5 Coords:      0.000000      0.000000      0.000000, Make: null, ID: cpu, Quantity: CPU TIME


 Slice File Information, Mesh     1

   Sampling Interval (s)             0.060

   1 Nodes:   0  16   9   9   0  16, Quantity: VELOCITY
   2 Nodes:   0  16   9   9   0  16, Quantity: U-VELOCITY
   3 Nodes:   0  16   9   9   0  16, Quantity: V-VELOCITY
   4 Nodes:   0  16   9   9   0  16, Quantity: W-VELOCITY
   5 Nodes:   0  16   9   9   0  16, Quantity: H
   6 Nodes:   0  16   0  16   9   9, Quantity: VELOCITY
   7 Nodes:   0  16   0  16   9   9, Quantity: U-VELOCITY
   8 Nodes:   0  16   0  16   9   9, Quantity: V-VELOCITY
   9 Nodes:   0  16   0  16   9   9, Quantity: W-VELOCITY
  10 Nodes:   0  16   0  16   9   9, Quantity: H


 Boundary File Information

   Sampling Interval (s)             0.120

   1 Quantity: VELOCITY ERROR


 SCARC Information

   Discretization             STRUCTURED
   Global solver                  KRYLOV
   Storage technique            BANDWISE
   Preconditioner                    FFT
   Max iterations                   1000
   Stopping accuracy            0.10E-07
 
 

 Run Time Diagnostics

       Time Step       1   June 26, 2020  16:17:47
       Step Size:    0.125E+00 s, Total Time:       0.12 s
       Pressure Iterations:      3
       Maximum Velocity Error:  0.71E-03 on Mesh   2 at (   5  11   7)
       Maximum Pressure Error:  0.37E-09 on Mesh   3 at (  16   3   4)
       ScaRC: iterations    27, residual  0.60E-08, convergence rate   0.48E+00
       ---------------------------------------------------------------
       Mesh    1
       Max CFL number:  0.11E-01 at (  10,  11,   6)
       Max divergence:  0.13E-10 at (  16,  11,  15)
       Min divergence: -0.14E-10 at (  16,  16,  13)
       Max VN number:   0.94E-02 at (   4,   6,   5)
       Mesh    2
       Max CFL number:  0.11E-01 at (  15,  15,  15)
       Max divergence:  0.22E-10 at (  16,  16,   1)
       Min divergence: -0.16E-10 at (  16,  16,  15)
       Max VN number:   0.76E-02 at (  10,   3,   7)
       Mesh    3
       Max CFL number:  0.11E-01 at (  10,   8,  13)
       Max divergence:  0.21E-10 at (  16,   4,   1)
       Min divergence: -0.18E-10 at (   1,  16,  16)
       Max VN number:   0.87E-02 at (   4,   6,  11)
       Mesh    4
       Max CFL number:  0.11E-01 at (  15,  14,   3)
       Max divergence:  0.22E-10 at (  16,   1,   1)
       Min divergence: -0.16E-10 at (  16,   1,  15)
       Max VN number:   0.77E-02 at (   6,  15,   7)
       Mesh    5
       Max CFL number:  0.11E-01 at (  15,   5,   7)
       Max divergence:  0.20E-10 at (  16,  16,   3)
       Min divergence: -0.15E-10 at (  16,  16,  13)
       Max VN number:   0.82E-02 at (   4,  10,  10)
       Mesh    6
       Max CFL number:  0.11E-01 at (   8,   6,  12)
       Max divergence:  0.25E-10 at (  16,  16,   3)
       Min divergence: -0.21E-10 at (  16,  16,   4)
       Max VN number:   0.89E-02 at (   9,   5,  13)
       Mesh    7
       Max CFL number:  0.11E-01 at (  11,   8,   4)
       Max divergence:  0.22E-10 at (  16,   1,  15)
       Min divergence: -0.18E-10 at (   1,  16,   1)
       Max VN number:   0.85E-02 at (   8,   5,  14)
       Mesh    8
       Max CFL number:  0.11E-01 at (   2,  12,  13)
       Max divergence:  0.25E-10 at (  16,   1,   3)
       Min divergence: -0.21E-10 at (  16,   1,   4)
       Max VN number:   0.82E-02 at (   2,  15,   7)
 
       Time Step       2   June 26, 2020  16:18:02
       Step Size:    0.125E+00 s, Total Time:       0.25 s
       Pressure Iterations:   1000
       Maximum Velocity Error:  0.20E-02 on Mesh   1 at (   8  12   7)
       Maximum Pressure Error:  0.40E-09 on Mesh   1 at (  16   8  10)
       ScaRC: iterations    29, residual  0.79E-08, convergence rate   0.49E+00
       ---------------------------------------------------------------
       Mesh    1
       Max CFL number:  0.82E-01 at (  11,  10,  11)
       Max divergence:  0.30E-10 at (  16,   7,  14)
       Min divergence: -0.30E-10 at (  16,   1,   1)
       Max VN number:   0.94E-02 at (   4,   6,   5)
       Mesh    2
       Max CFL number:  0.93E-01 at (   6,  11,  11)
       Max divergence:  0.30E-10 at (   1,   7,  14)
       Min divergence: -0.30E-10 at (   1,   1,   1)
       Max VN number:   0.75E-02 at (  10,   3,   7)
       Mesh    3
       Max CFL number:  0.47E-01 at (  11,   9,  11)
       Max divergence:  0.23E-10 at (  16,   6,   4)
       Min divergence: -0.27E-10 at (  16,   1,   8)
       Max VN number:   0.87E-02 at (   4,   6,  11)
       Mesh    4
       Max CFL number:  0.70E-01 at (   6,   6,  10)
       Max divergence:  0.27E-10 at (   3,   1,   7)
       Min divergence: -0.28E-10 at (  16,   1,   1)
       Max VN number:   0.77E-02 at (   6,  15,   7)
       Mesh    5
       Max CFL number:  0.15E-01 at (  15,  10,   9)
       Max divergence:  0.32E-10 at (  16,  16,   8)
       Min divergence: -0.23E-10 at (  16,  16,  13)
       Max VN number:   0.82E-02 at (   4,  10,  10)
       Mesh    6
       Max CFL number:  0.18E-01 at (   6,  11,   9)
       Max divergence:  0.25E-10 at (   1,  16,   8)
       Min divergence: -0.22E-10 at (   1,  16,  13)
       Max VN number:   0.88E-02 at (   9,   5,  13)
       Mesh    7
       Max CFL number:  0.35E-01 at (  11,   8,   4)
       Max divergence:  0.27E-10 at (  16,   1,   8)
       Min divergence: -0.26E-10 at (  16,   1,   3)
       Max VN number:   0.85E-02 at (   8,   5,  14)
       Mesh    8
       Max CFL number:  0.25E-01 at (   5,   6,   6)
       Max divergence:  0.29E-10 at (   1,   1,   9)
       Min divergence: -0.23E-10 at (   1,   1,  15)
       Max VN number:   0.81E-02 at (   2,  15,   7)
 
       Time Step       3   June 26, 2020  16:18:19
       Step Size:    0.125E+00 s, Total Time:       0.38 s
       Pressure Iterations:   1000
       Maximum Velocity Error:  0.24E-02 on Mesh   1 at (   8  12   7)
       Maximum Pressure Error:  0.39E-09 on Mesh   2 at (   1   8  10)
       ScaRC: iterations    29, residual  0.10E-07, convergence rate   0.49E+00
       ---------------------------------------------------------------
       Mesh    1
       Max CFL number:  0.16E+00 at (   9,   9,   9)
       Max divergence:  0.36E-10 at (  16,   7,  14)
       Min divergence: -0.36E-10 at (  16,   1,   1)
       Max VN number:   0.24E-01 at (   6,  11,  11)
       Mesh    2
       Max CFL number:  0.20E+00 at (   5,  11,  11)
       Max divergence:  0.36E-10 at (   1,   7,  14)
       Min divergence: -0.36E-10 at (   1,   1,   1)
       Max VN number:   0.47E-01 at (   6,  11,   7)
       Mesh    3
       Max CFL number:  0.14E+00 at (  11,   9,  11)
       Max divergence:  0.29E-10 at (  16,   6,   4)
       Min divergence: -0.31E-10 at (  16,   1,   8)
       Max VN number:   0.21E-01 at (  11,  10,  11)
       Mesh    4
       Max CFL number:  0.17E+00 at (   6,   6,  10)
       Max divergence:  0.33E-10 at (   3,   1,   7)
       Min divergence: -0.34E-10 at (  16,   1,   1)
       Max VN number:   0.31E-01 at (   6,   6,  11)
       Mesh    5
       Max CFL number:  0.62E-01 at (   7,  11,  10)
       Max divergence:  0.40E-10 at (  16,  16,   8)
       Min divergence: -0.31E-10 at (  16,  16,   1)
       Max VN number:   0.93E-02 at (   6,  11,  10)
       Mesh    6
       Max CFL number:  0.86E-01 at (   6,  11,   9)
       Max divergence:  0.30E-10 at (   1,   9,   1)
       Min divergence: -0.28E-10 at (   1,  16,  13)
       Max VN number:   0.89E-02 at (   6,  11,   9)
       Mesh    7
       Max CFL number:  0.12E+00 at (  11,   8,   5)
       Max divergence:  0.32E-10 at (  16,   1,   8)
       Min divergence: -0.31E-10 at (  16,   1,   3)
       Max VN number:   0.16E-01 at (  11,   8,   6)
       Mesh    8
       Max CFL number:  0.10E+00 at (   6,   6,   6)
       Max divergence:  0.36E-10 at (   1,   1,   9)
       Min divergence: -0.29E-10 at (   1,   1,  15)
       Max VN number:   0.93E-02 at (   6,   6,   7)
 
       Time Step       4   June 26, 2020  16:18:34
       Step Size:    0.125E+00 s, Total Time:       0.50 s
       Pressure Iterations:   1000
       Maximum Velocity Error:  0.18E-02 on Mesh   1 at (   8  12   7)
       Maximum Pressure Error:  0.14E-08 on Mesh   2 at (   1   9   9)
       ScaRC: iterations    29, residual  0.75E-08, convergence rate   0.49E+00
       ---------------------------------------------------------------
       Mesh    1
       Max CFL number:  0.23E+00 at (  11,  10,  11)
       Max divergence:  0.27E-10 at (  16,   7,  14)
       Min divergence: -0.26E-10 at (  16,   1,   1)
       Max VN number:   0.72E-01 at (   6,  11,  11)
       Mesh    2
       Max CFL number:  0.32E+00 at (   5,  11,  11)
       Max divergence:  0.27E-10 at (   1,   7,  14)
       Min divergence: -0.26E-10 at (   1,   1,   1)
       Max VN number:   0.11E+00 at (   6,  11,   7)
       Mesh    3
       Max CFL number:  0.27E+00 at (  11,   9,  11)
       Max divergence:  0.21E-10 at (  16,   6,   4)
       Min divergence: -0.23E-10 at (  16,  16,   1)
       Max VN number:   0.82E-01 at (  11,  10,  11)
       Mesh    4
       Max CFL number:  0.29E+00 at (   6,   6,   9)
       Max divergence:  0.24E-10 at (   3,   1,   7)
       Min divergence: -0.26E-10 at (  16,   1,   1)
       Max VN number:   0.94E-01 at (   6,   6,  11)
       Mesh    5
       Max CFL number:  0.16E+00 at (   7,  11,  10)
       Max divergence:  0.30E-10 at (  16,  16,   8)
       Min divergence: -0.23E-10 at (  16,  16,   1)
       Max VN number:   0.31E-01 at (   6,  11,  10)
       Mesh    6
       Max CFL number:  0.21E+00 at (   6,  12,   8)
       Max divergence:  0.23E-10 at (   1,   9,   1)
       Min divergence: -0.21E-10 at (   1,  16,  13)
       Max VN number:   0.56E-01 at (   6,  11,   6)
       Mesh    7
       Max CFL number:  0.25E+00 at (  11,   8,   5)
       Max divergence:  0.24E-10 at (  16,   1,   8)
       Min divergence: -0.23E-10 at (  16,   1,   3)
       Max VN number:   0.69E-01 at (  11,   6,   6)
       Mesh    8
       Max CFL number:  0.23E+00 at (   6,   6,   6)
       Max divergence:  0.27E-10 at (   1,   1,   9)
       Min divergence: -0.22E-10 at (   1,   1,  15)
       Max VN number:   0.64E-01 at (   6,   6,   6)
 
       Time Step       5   June 26, 2020  16:18:43
       Step Size:    0.125E+00 s, Total Time:       0.62 s
       Pressure Iterations:      9
       Maximum Velocity Error:  0.99E-03 on Mesh   2 at (  10   8  12)
       Maximum Pressure Error:  0.87E-08 on Mesh   2 at (   1   9   9)
       ScaRC: iterations    28, residual  0.72E-08, convergence rate   0.49E+00
       ---------------------------------------------------------------
       Mesh    1
       Max CFL number:  0.30E+00 at (  10,  10,  11)
       Max divergence:  0.27E-10 at (  16,   9,  16)
       Min divergence: -0.21E-10 at (  16,  16,  16)
       Max VN number:   0.12E+00 at (   6,  11,  11)
       Mesh    2
       Max CFL number:  0.45E+00 at (   6,  11,   8)
       Max divergence:  0.25E-10 at (  16,  16,   1)
       Min divergence: -0.22E-10 at (   1,  16,   8)
       Max VN number:   0.17E+00 at (   6,  11,   7)
       Mesh    3
       Max CFL number:  0.42E+00 at (  11,   9,  11)
       Max divergence:  0.22E-10 at (  16,  16,   1)
       Min divergence: -0.21E-10 at (  16,   9,  16)
       Max VN number:   0.15E+00 at (  11,  10,  11)
       Mesh    4
       Max CFL number:  0.44E+00 at (   6,   5,   9)
       Max divergence:  0.25E-10 at (  16,   1,   1)
       Min divergence: -0.18E-10 at (   1,   2,   1)
       Max VN number:   0.16E+00 at (   6,   6,  11)
       Mesh    5
       Max CFL number:  0.29E+00 at (   7,  11,  10)
       Max divergence:  0.28E-10 at (  16,  16,   7)
       Min divergence: -0.28E-10 at (  16,  16,  14)
       Max VN number:   0.68E-01 at (   6,  11,  10)
       Mesh    6
       Max CFL number:  0.39E+00 at (   6,  12,   8)
       Max divergence:  0.26E-10 at (   1,  10,   1)
       Min divergence: -0.27E-10 at (   1,  15,   1)
       Max VN number:   0.13E+00 at (   6,  11,   6)
       Mesh    7
       Max CFL number:  0.41E+00 at (  11,   8,   5)
       Max divergence:  0.23E-10 at (  16,   3,   1)
       Min divergence: -0.24E-10 at (  16,   1,   2)
       Max VN number:   0.14E+00 at (  11,   6,   6)
       Mesh    8
       Max CFL number:  0.40E+00 at (   5,   6,   6)
       Max divergence:  0.28E-10 at (   1,   1,   8)
       Min divergence: -0.22E-10 at (   1,   1,  13)
       Max VN number:   0.14E+00 at (   6,   6,   6)
 
       Time Step       6   June 26, 2020  16:18:45
       Step Size:    0.125E+00 s, Total Time:       0.75 s
       Pressure Iterations:    126
       Maximum Velocity Error:  0.10E-02 on Mesh   1 at (   8  11  12)
       Maximum Pressure Error:  0.39E-08 on Mesh   4 at (   8   1   9)
       ScaRC: iterations    28, residual  0.54E-08, convergence rate   0.49E+00
       ---------------------------------------------------------------
       Mesh    1
       Max CFL number:  0.36E+00 at (  16,  11,   8)
       Max divergence:  0.17E-10 at (  16,   7,  14)
       Min divergence: -0.29E-10 at (  16,   1,   1)
       Max VN number:   0.16E+00 at (   6,  11,  11)
       Mesh    2
       Max CFL number:  0.59E+00 at (   5,  11,   8)
       Max divergence:  0.27E-10 at (   1,  16,   8)
       Min divergence: -0.29E-10 at (   1,   1,   1)
       Max VN number:   0.22E+00 at (   6,  11,   7)
       Mesh    3
       Max CFL number:  0.58E+00 at (  11,   9,  11)
       Max divergence:  0.19E-10 at (  16,   1,   9)
       Min divergence: -0.23E-10 at (  16,   1,   1)
       Max VN number:   0.22E+00 at (  11,  10,  11)
       Mesh    4
       Max CFL number:  0.59E+00 at (   6,   6,   9)
       Max divergence:  0.16E-10 at (   1,   2,   1)
       Min divergence: -0.20E-10 at (   1,   1,  14)
       Max VN number:   0.22E+00 at (   6,   6,  11)
       Mesh    5
       Max CFL number:  0.41E+00 at (   7,  11,  10)
       Max divergence:  0.16E-10 at (  16,  13,   4)
       Min divergence: -0.20E-10 at (  16,  16,   8)
       Max VN number:   0.11E+00 at (   6,  11,  10)
       Mesh    6
       Max CFL number:  0.57E+00 at (   6,  11,   8)
       Max divergence:  0.21E-10 at (   1,  16,   3)
       Min divergence: -0.21E-10 at (   1,  16,   8)
       Max VN number:   0.21E+00 at (   6,  11,   6)
       Mesh    7
       Max CFL number:  0.58E+00 at (  11,   8,   5)
       Max divergence:  0.23E-10 at (  16,   1,   2)
       Min divergence: -0.19E-10 at (  16,   1,   7)
       Max VN number:   0.21E+00 at (  11,   6,   6)
       Mesh    8
       Max CFL number:  0.57E+00 at (   6,   6,   9)
       Max divergence:  0.16E-10 at (   1,   1,   2)
       Min divergence: -0.19E-10 at (   1,   1,   8)
       Max VN number:   0.21E+00 at (   6,   6,   6)
 
       Time Step       7   June 26, 2020  16:19:00
       Step Size:    0.125E+00 s, Total Time:       0.88 s
       Pressure Iterations:   1000
       Maximum Velocity Error:  0.13E-02 on Mesh   1 at (   8  12   7)
       Maximum Pressure Error:  0.71E-08 on Mesh   4 at (   8   1   9)
       ScaRC: iterations    29, residual  0.54E-08, convergence rate   0.49E+00
       ---------------------------------------------------------------
       Mesh    1
       Max CFL number:  0.41E+00 at (  16,  11,   8)
       Max divergence:  0.20E-10 at (  16,   1,   1)
       Min divergence: -0.20E-10 at (  16,   7,  14)
       Max VN number:   0.19E+00 at (   6,  11,  11)
       Mesh    2
       Max CFL number:  0.71E+00 at (   5,  11,  10)
       Max divergence:  0.20E-10 at (   1,   1,   1)
       Min divergence: -0.20E-10 at (   1,   7,  14)
       Max VN number:   0.25E+00 at (   6,  11,   7)
       Mesh    3
       Max CFL number:  0.73E+00 at (  12,   8,  11)
       Max divergence:  0.17E-10 at (  16,   1,   8)
       Min divergence: -0.16E-10 at (  16,   6,   4)
       Max VN number:   0.27E+00 at (  11,  10,  11)
       Mesh    4
       Max CFL number:  0.72E+00 at (   6,   6,   9)
       Max divergence:  0.19E-10 at (  16,   1,   1)
       Min divergence: -0.18E-10 at (   3,   1,   7)
       Max VN number:   0.26E+00 at (   6,   6,  11)
       Mesh    5
       Max CFL number:  0.52E+00 at (   7,   7,   6)
       Max divergence:  0.16E-10 at (  16,  16,   1)
       Min divergence: -0.22E-10 at (  16,  16,   8)
       Max VN number:   0.15E+00 at (   6,  11,  10)
       Mesh    6
       Max CFL number:  0.75E+00 at (   6,  12,   8)
       Max divergence:  0.15E-10 at (   1,  16,  13)
       Min divergence: -0.16E-10 at (   1,   9,   1)
       Max VN number:   0.27E+00 at (   6,  11,  10)
       Mesh    7
       Max CFL number:  0.74E+00 at (  11,   8,   5)
       Max divergence:  0.17E-10 at (  16,   1,   3)
       Min divergence: -0.18E-10 at (  16,   1,   8)
       Max VN number:   0.26E+00 at (  11,   6,   6)
       Mesh    8
       Max CFL number:  0.74E+00 at (   6,   6,   7)
       Max divergence:  0.16E-10 at (   1,   1,  15)
       Min divergence: -0.20E-10 at (   1,   1,   9)
       Max VN number:   0.27E+00 at (   6,   6,   6)
 
       Time Step       8   June 26, 2020  16:19:15
       Step Size:    0.125E+00 s, Total Time:       1.00 s
       Pressure Iterations:   1000
       Maximum Velocity Error:  0.16E-02 on Mesh   1 at (   8  12   7)
       Maximum Pressure Error:  0.47E-08 on Mesh   4 at (   8   2   9)
       ScaRC: iterations    29, residual  0.66E-08, convergence rate   0.49E+00
       ---------------------------------------------------------------
       Mesh    1
       Max CFL number:  0.46E+00 at (  16,  11,   8)
       Max divergence:  0.24E-10 at (  16,   1,   1)
       Min divergence: -0.24E-10 at (  16,   7,  14)
       Max VN number:   0.22E+00 at (   6,  11,  11)
       Mesh    2
       Max CFL number:  0.80E+00 at (   5,  11,  10)
       Max divergence:  0.24E-10 at (   1,   1,   1)
       Min divergence: -0.24E-10 at (   1,   7,  14)
       Max VN number:   0.26E+00 at (   6,  11,  11)
       Mesh    3
       Max CFL number:  0.84E+00 at (  12,   8,  11)
       Max divergence:  0.20E-10 at (  16,   1,   8)
       Min divergence: -0.19E-10 at (  16,   6,   4)
       Max VN number:   0.28E+00 at (  11,   6,  11)
       Mesh    4
       Max CFL number:  0.82E+00 at (   6,   5,   9)
       Max divergence:  0.23E-10 at (  16,   1,   1)
       Min divergence: -0.22E-10 at (   3,   1,   7)
       Max VN number:   0.27E+00 at (   6,   6,  11)
       Mesh    5
       Max CFL number:  0.60E+00 at (   7,   7,   6)
       Max divergence:  0.21E-10 at (  16,  16,   1)
       Min divergence: -0.27E-10 at (  16,  16,   8)
       Max VN number:   0.19E+00 at (   6,  11,  10)
       Mesh    6
       Max CFL number:  0.88E+00 at (   6,  12,   8)
       Max divergence:  0.19E-10 at (   1,  16,  13)
       Min divergence: -0.20E-10 at (   1,   9,   1)
       Max VN number:   0.30E+00 at (   6,  11,  10)
       Mesh    7
       Max CFL number:  0.86E+00 at (  11,   8,   5)
       Max divergence:  0.21E-10 at (  16,   1,   3)
       Min divergence: -0.21E-10 at (  16,   1,   8)
       Max VN number:   0.29E+00 at (  11,   6,   6)
       Mesh    8
       Max CFL number:  0.87E+00 at (   5,   6,   8)
       Max divergence:  0.20E-10 at (   1,   1,  15)
       Min divergence: -0.24E-10 at (   1,   1,   9)
       Max VN number:   0.29E+00 at (   6,   6,   6)
 
       Time Step       9   June 26, 2020  16:19:31
       Step Size:    0.125E+00 s, Total Time:       1.12 s
       Pressure Iterations:   1000
       Maximum Velocity Error:  0.14E-02 on Mesh   1 at (   8  12   7)
       Maximum Pressure Error:  0.23E-08 on Mesh   4 at (   8   2   9)
       ScaRC: iterations    29, residual  0.58E-08, convergence rate   0.49E+00
       ---------------------------------------------------------------
       Mesh    1
       Max CFL number:  0.50E+00 at (  16,  11,   8)
       Max divergence:  0.21E-10 at (  16,   1,   1)
       Min divergence: -0.21E-10 at (  16,   7,  14)
       Max VN number:   0.25E+00 at (   6,  11,  11)
       Mesh    2
       Max CFL number:  0.85E+00 at (   6,  11,  10)
       Max divergence:  0.21E-10 at (   1,   1,   1)
       Min divergence: -0.21E-10 at (   1,   7,  14)
       Max VN number:   0.30E+00 at (   7,  11,   7)
       Mesh    3
       Max CFL number:  0.90E+00 at (  12,   8,  11)
       Max divergence:  0.18E-10 at (  16,   1,   8)
       Min divergence: -0.17E-10 at (  16,   6,   4)
       Max VN number:   0.32E+00 at (  10,  10,  11)
       Mesh    4
       Max CFL number:  0.87E+00 at (   6,   5,   8)
       Max divergence:  0.20E-10 at (  16,   1,   1)
       Min divergence: -0.19E-10 at (   3,   1,   7)
       Max VN number:   0.30E+00 at (   6,   7,   7)
       Mesh    5
       Max CFL number:  0.64E+00 at (   7,   7,   6)
       Max divergence:  0.18E-10 at (  16,  16,   1)
       Min divergence: -0.23E-10 at (  16,  16,   8)
       Max VN number:   0.23E+00 at (   6,   7,   6)
       Mesh    6
       Max CFL number:  0.94E+00 at (   6,  12,   8)
       Max divergence:  0.16E-10 at (   1,  16,  13)
       Min divergence: -0.18E-10 at (   1,   9,   1)
       Max VN number:   0.32E+00 at (   6,  10,   6)
       Mesh    7
       Max CFL number:  0.91E+00 at (  11,   8,   5)
       Max divergence:  0.18E-10 at (  16,   1,   3)
       Min divergence: -0.19E-10 at (  16,   1,   8)
       Max VN number:   0.31E+00 at (  11,  10,   7)
       Mesh    8
       Max CFL number:  0.93E+00 at (   5,   6,   8)
       Max divergence:  0.17E-10 at (   1,   1,  15)
       Min divergence: -0.21E-10 at (   1,   1,   9)
       Max VN number:   0.32E+00 at (   7,   6,  10)
 
       Time Step      10   June 26, 2020  16:19:42
       Step Size:    0.125E+00 s, Total Time:       1.25 s
       Pressure Iterations:    626
       Maximum Velocity Error:  0.10E-02 on Mesh   1 at (   8  12   7)
       Maximum Pressure Error:  0.69E-09 on Mesh   5 at (  16  16   1)
       ScaRC: iterations    28, residual  0.83E-08, convergence rate   0.49E+00
       ---------------------------------------------------------------
       Mesh    1
       Max CFL number:  0.52E+00 at (  16,  11,   8)
       Max divergence:  0.21E-10 at (  16,  16,  16)
       Min divergence: -0.33E-10 at (  16,  16,  14)
       Max VN number:   0.26E+00 at (   6,  11,  11)
       Mesh    2
       Max CFL number:  0.87E+00 at (   5,  11,  10)
       Max divergence:  0.29E-10 at (   1,  16,   8)
       Min divergence: -0.30E-10 at (   1,  16,  13)
       Max VN number:   0.32E+00 at (   7,  11,   7)
       Mesh    3
       Max CFL number:  0.90E+00 at (  11,   9,  11)
       Max divergence:  0.21E-10 at (  16,   2,   1)
       Min divergence: -0.27E-10 at (  16,   1,  14)
       Max VN number:   0.34E+00 at (  10,  10,  11)
       Mesh    4
       Max CFL number:  0.88E+00 at (   6,   5,  11)
       Max divergence:  0.24E-10 at (   1,   1,   8)
       Min divergence: -0.31E-10 at (   1,   1,  13)
       Max VN number:   0.32E+00 at (   6,   7,  11)
       Mesh    5
       Max CFL number:  0.65E+00 at (   7,   7,  10)
       Max divergence:  0.33E-10 at (  16,  16,  14)
       Min divergence: -0.33E-10 at (  16,  16,   7)
       Max VN number:   0.25E+00 at (   6,   7,   6)
       Mesh    6
       Max CFL number:  0.92E+00 at (   6,  11,  10)
       Max divergence:  0.29E-10 at (   1,  16,  14)
       Min divergence: -0.30E-10 at (   1,  16,   8)
       Max VN number:   0.35E+00 at (   6,  10,  10)
       Mesh    7
       Max CFL number:  0.91E+00 at (  11,   6,   5)
       Max divergence:  0.30E-10 at (  16,   1,   2)
       Min divergence: -0.27E-10 at (  16,   1,   8)
       Max VN number:   0.34E+00 at (  11,  10,   7)
       Mesh    8
       Max CFL number:  0.92E+00 at (   5,   6,   8)
       Max divergence:  0.26E-10 at (   1,   1,  13)
       Min divergence: -0.35E-10 at (   1,   1,   8)
       Max VN number:   0.35E+00 at (   7,   6,  10)
 
       Time Step      20   June 26, 2020  16:20:04
       Step Size:    0.112E+00 s, Total Time:       2.41 s
       Pressure Iterations:     12
       Maximum Velocity Error:  0.99E-03 on Mesh   8 at (   1   6   6)
       Maximum Pressure Error:  0.72E-09 on Mesh   8 at (   1   9   8)
       ScaRC: iterations    28, residual  0.66E-08, convergence rate   0.49E+00
       ---------------------------------------------------------------
       Mesh    1
       Max CFL number:  0.59E+00 at (  16,  10,   8)
       Max divergence:  0.21E-10 at (  16,  16,  15)
       Min divergence: -0.21E-10 at (  16,  16,  10)
       Max VN number:   0.30E+00 at (   6,   7,  11)
       Mesh    2
       Max CFL number:  0.89E+00 at (   6,  11,   8)
       Max divergence:  0.17E-10 at (   4,  16,  13)
       Min divergence: -0.23E-10 at (   1,  16,   9)
       Max VN number:   0.41E+00 at (   6,  10,  11)
       Mesh    3
       Max CFL number:  0.90E+00 at (  11,   9,  11)
       Max divergence:  0.21E-10 at (  16,   4,  13)
       Min divergence: -0.23E-10 at (  16,  10,  14)
       Max VN number:   0.41E+00 at (  11,  10,  10)
       Mesh    4
       Max CFL number:  0.86E+00 at (   4,   8,   9)
       Max divergence:  0.26E-10 at (   1,   1,  14)
       Min divergence: -0.23E-10 at (   1,  10,  14)
       Max VN number:   0.40E+00 at (   7,   6,  11)
       Mesh    5
       Max CFL number:  0.75E+00 at (  16,   8,   8)
       Max divergence:  0.20E-10 at (  16,  16,   8)
       Min divergence: -0.19E-10 at (  16,  16,  16)
       Max VN number:   0.25E+00 at (   3,   7,  10)
       Mesh    6
       Max CFL number:  0.89E+00 at (   3,   9,   8)
       Max divergence:  0.19E-10 at (   1,  16,   9)
       Min divergence: -0.19E-10 at (  14,  16,  14)
       Max VN number:   0.41E+00 at (   7,  11,  10)
       Mesh    7
       Max CFL number:  0.88E+00 at (  13,   8,   8)
       Max divergence:  0.16E-10 at (  16,   1,   8)
       Min divergence: -0.21E-10 at (  16,  14,  14)
       Max VN number:   0.40E+00 at (  10,   6,   6)
       Mesh    8
       Max CFL number:  0.91E+00 at (   6,   6,   9)
       Max divergence:  0.25E-10 at (   1,   1,   9)
       Min divergence: -0.24E-10 at (   1,   1,   3)
       Max VN number:   0.42E+00 at (   6,   7,  10)
 
       Time Step      30   June 26, 2020  16:20:13
       Step Size:    0.101E+00 s, Total Time:       3.49 s
       Pressure Iterations:     10
       Maximum Velocity Error:  0.98E-03 on Mesh   3 at (  12  10  16)
       Maximum Pressure Error:  0.95E-09 on Mesh   2 at (   1   8   9)
       ScaRC: iterations    28, residual  0.82E-08, convergence rate   0.49E+00
       ---------------------------------------------------------------
       Mesh    1
       Max CFL number:  0.55E+00 at (  15,   9,   9)
       Max divergence:  0.18E-10 at (   3,  16,  16)
       Min divergence: -0.19E-10 at (  16,  16,  14)
       Max VN number:   0.27E+00 at (   6,  11,   7)
       Mesh    2
       Max CFL number:  0.83E+00 at (   6,  11,   9)
       Max divergence:  0.17E-10 at (  13,  16,   5)
       Min divergence: -0.19E-10 at (   1,  16,  13)
       Max VN number:   0.35E+00 at (   6,  12,  11)
       Mesh    3
       Max CFL number:  0.92E+00 at (  11,   8,  11)
       Max divergence:  0.21E-10 at (   4,  12,  16)
       Min divergence: -0.18E-10 at (   4,   7,  16)
       Max VN number:   0.38E+00 at (  11,   9,  12)
       Mesh    4
       Max CFL number:  0.77E+00 at (   2,   8,   9)
       Max divergence:  0.17E-10 at (  13,   1,   5)
       Min divergence: -0.20E-10 at (   1,   1,  13)
       Max VN number:   0.33E+00 at (   9,   8,   7)
       Mesh    5
       Max CFL number:  0.77E+00 at (  16,   7,   8)
       Max divergence:  0.21E-10 at (  16,  16,   2)
       Min divergence: -0.18E-10 at (  16,  16,   7)
       Max VN number:   0.25E+00 at (  16,   7,  10)
       Mesh    6
       Max CFL number:  0.78E+00 at (   2,   7,   8)
       Max divergence:  0.18E-10 at (   1,  13,   4)
       Min divergence: -0.19E-10 at (   1,  16,   8)
       Max VN number:   0.34E+00 at (   9,   9,   6)
       Mesh    7
       Max CFL number:  0.78E+00 at (  15,   8,   8)
       Max divergence:  0.21E-10 at (   4,  12,   1)
       Min divergence: -0.20E-10 at (  16,   1,   7)
       Max VN number:   0.33E+00 at (   8,   6,   8)
       Mesh    8
       Max CFL number:  0.94E+00 at (   5,   6,   8)
       Max divergence:  0.15E-10 at (   4,   1,  15)
       Min divergence: -0.20E-10 at (   1,   1,   8)
       Max VN number:   0.38E+00 at (   6,   5,  10)
 
       Time Step      40   June 26, 2020  16:20:18
       Step Size:    0.894E-01 s, Total Time:       4.41 s
       Pressure Iterations:      6
       Maximum Velocity Error:  0.98E-03 on Mesh   3 at (  12   6  12)
       Maximum Pressure Error:  0.76E-09 on Mesh   6 at (  16  16   4)
       ScaRC: iterations    29, residual  0.47E-08, convergence rate   0.49E+00
       ---------------------------------------------------------------
       Mesh    1
       Max CFL number:  0.49E+00 at (  16,   9,   9)
       Max divergence:  0.10E-10 at (  16,  16,  16)
       Min divergence: -0.94E-11 at (  16,   8,  16)
       Max VN number:   0.24E+00 at (   6,  11,   7)
       Mesh    2
       Max CFL number:  0.72E+00 at (   6,  11,   9)
       Max divergence:  0.12E-10 at (  16,  16,   1)
       Min divergence: -0.13E-10 at (   8,  16,   9)
       Max VN number:   0.32E+00 at (   6,  12,  10)
       Mesh    3
       Max CFL number:  0.84E+00 at (  10,   9,  11)
       Max divergence:  0.12E-10 at (   1,  16,  16)
       Min divergence: -0.13E-10 at (   7,   3,  16)
       Max VN number:   0.36E+00 at (  12,   6,  11)
       Mesh    4
       Max CFL number:  0.71E+00 at (   9,   1,   9)
       Max divergence:  0.12E-10 at (  16,   1,   1)
       Min divergence: -0.12E-10 at (  10,   1,  14)
       Max VN number:   0.31E+00 at (   9,   8,   9)
       Mesh    5
       Max CFL number:  0.71E+00 at (  16,   8,   9)
       Max divergence:  0.12E-10 at (  16,  16,   1)
       Min divergence: -0.12E-10 at (  16,  16,   8)
       Max VN number:   0.23E+00 at (  16,   7,  10)
       Mesh    6
       Max CFL number:  0.74E+00 at (   9,  16,   9)
       Max divergence:  0.94E-11 at (   1,  16,   1)
       Min divergence: -0.10E-10 at (   1,   9,   1)
       Max VN number:   0.31E+00 at (   9,   9,   8)
       Mesh    7
       Max CFL number:  0.73E+00 at (   8,   9,   1)
       Max divergence:  0.12E-10 at (   1,  16,   1)
       Min divergence: -0.13E-10 at (   7,   3,   1)
       Max VN number:   0.31E+00 at (   8,   8,   8)
       Mesh    8
       Max CFL number:  0.85E+00 at (   7,   6,   9)
       Max divergence:  0.10E-10 at (   1,   1,  15)
       Min divergence: -0.10E-10 at (   3,   1,  10)
       Max VN number:   0.36E+00 at (   5,   6,   6)
 
       Time Step      50   June 26, 2020  16:20:22
       Step Size:    0.894E-01 s, Total Time:       5.31 s
       Pressure Iterations:      9
       Maximum Velocity Error:  0.92E-03 on Mesh   6 at (   6  16   6)
       Maximum Pressure Error:  0.69E-09 on Mesh   2 at (   1   9   9)
       ScaRC: iterations    28, residual  0.81E-08, convergence rate   0.49E+00
       ---------------------------------------------------------------
       Mesh    1
       Max CFL number:  0.50E+00 at (   9,   9,   9)
       Max divergence:  0.18E-10 at (  14,  16,  16)
       Min divergence: -0.15E-10 at (  16,   3,   3)
       Max VN number:   0.24E+00 at (   6,  11,   7)
       Mesh    2
       Max CFL number:  0.75E+00 at (   8,  15,   8)
       Max divergence:  0.25E-10 at (  10,  16,  14)
       Min divergence: -0.27E-10 at (   1,  16,  14)
       Max VN number:   0.36E+00 at (   6,  12,   9)
       Mesh    3
       Max CFL number:  0.85E+00 at (  11,   8,  11)
       Max divergence:  0.15E-10 at (   8,  13,  16)
       Min divergence: -0.15E-10 at (  16,   1,   1)
       Max VN number:   0.40E+00 at (  12,   6,  11)
       Mesh    4
       Max CFL number:  0.73E+00 at (   8,   1,   9)
       Max divergence:  0.25E-10 at (  10,   1,  14)
       Min divergence: -0.27E-10 at (   1,   1,  14)
       Max VN number:   0.30E+00 at (  10,  10,   9)
       Mesh    5
       Max CFL number:  0.69E+00 at (  16,   7,   8)
       Max divergence:  0.17E-10 at (  16,  16,  12)
       Min divergence: -0.23E-10 at (  16,  16,   8)
       Max VN number:   0.23E+00 at (  16,   7,  10)
       Mesh    6
       Max CFL number:  0.74E+00 at (  10,  16,   8)
       Max divergence:  0.19E-10 at (   1,  16,  13)
       Min divergence: -0.23E-10 at (   1,  16,   7)
       Max VN number:   0.32E+00 at (  10,   7,   8)
       Mesh    7
       Max CFL number:  0.74E+00 at (   7,   8,   1)
       Max divergence:  0.18E-10 at (  16,   1,   2)
       Min divergence: -0.20E-10 at (  16,   1,   8)
       Max VN number:   0.31E+00 at (   7,   8,  10)
       Mesh    8
       Max CFL number:  0.85E+00 at (   7,   6,   8)
       Max divergence:  0.24E-10 at (   1,   1,  13)
       Min divergence: -0.24E-10 at (   1,   1,   7)
       Max VN number:   0.40E+00 at (   5,   6,   6)
 
       Time Step      60   June 26, 2020  16:20:25
       Step Size:    0.894E-01 s, Total Time:       6.20 s
       Pressure Iterations:      8
       Maximum Velocity Error:  0.96E-03 on Mesh   6 at (   6  12   6)
       Maximum Pressure Error:  0.44E-09 on Mesh   4 at (  10   1   7)
       ScaRC: iterations    28, residual  0.57E-08, convergence rate   0.49E+00
       ---------------------------------------------------------------
       Mesh    1
       Max CFL number:  0.52E+00 at (  15,   9,   9)
       Max divergence:  0.13E-10 at (  16,  16,   9)
       Min divergence: -0.13E-10 at (  16,  16,  15)
       Max VN number:   0.25E+00 at (   6,  11,   7)
       Mesh    2
       Max CFL number:  0.76E+00 at (   8,  14,   8)
       Max divergence:  0.16E-10 at (  10,  16,  14)
       Min divergence: -0.18E-10 at (   1,  16,  14)
       Max VN number:   0.36E+00 at (   6,  12,   8)
       Mesh    3
       Max CFL number:  0.84E+00 at (   7,   9,  15)
       Max divergence:  0.12E-10 at (  16,   1,  10)
       Min divergence: -0.16E-10 at (  16,   1,  15)
       Max VN number:   0.39E+00 at (  12,   6,  11)
       Mesh    4
       Max CFL number:  0.74E+00 at (   1,   8,   8)
       Max divergence:  0.17E-10 at (  10,   1,  14)
       Min divergence: -0.16E-10 at (   1,   1,  14)
       Max VN number:   0.27E+00 at (  10,  10,  10)
       Mesh    5
       Max CFL number:  0.74E+00 at (  15,   8,   7)
       Max divergence:  0.12E-10 at (  16,  16,   3)
       Min divergence: -0.13E-10 at (  16,  16,   8)
       Max VN number:   0.22E+00 at (  16,   7,   6)
       Mesh    6
       Max CFL number:  0.80E+00 at (  10,  16,   8)
       Max divergence:  0.19E-10 at (  14,  16,  14)
       Min divergence: -0.15E-10 at (   1,  16,   9)
       Max VN number:   0.31E+00 at (  10,   7,   7)
       Mesh    7
       Max CFL number:  0.79E+00 at (   7,   8,   1)
       Max divergence:  0.12E-10 at (  16,   1,  16)
       Min divergence: -0.15E-10 at (  16,   1,   8)
       Max VN number:   0.31E+00 at (   7,   7,  10)
       Mesh    8
       Max CFL number:  0.85E+00 at (  10,   3,   9)
       Max divergence:  0.19E-10 at (  14,   1,  14)
       Min divergence: -0.15E-10 at (   9,   1,   9)
       Max VN number:   0.39E+00 at (   5,   6,   6)
 
       Time Step      70   June 26, 2020  16:20:27
       Step Size:    0.894E-01 s, Total Time:       7.09 s
       Pressure Iterations:      6
       Maximum Velocity Error:  0.10E-02 on Mesh   3 at (  14  11   9)
       Maximum Pressure Error:  0.42E-09 on Mesh   4 at (   1   6  10)
       ScaRC: iterations    28, residual  0.69E-08, convergence rate   0.49E+00
       ---------------------------------------------------------------
       Mesh    1
       Max CFL number:  0.52E+00 at (  15,   8,   8)
       Max divergence:  0.18E-10 at (  16,   9,  16)
       Min divergence: -0.14E-10 at (  16,  16,   9)
       Max VN number:   0.25E+00 at (   6,  11,   7)
       Mesh    2
       Max CFL number:  0.78E+00 at (   8,  15,   8)
       Max divergence:  0.19E-10 at (   1,  16,  14)
       Min divergence: -0.12E-10 at (   1,  13,  14)
       Max VN number:   0.36E+00 at (   6,  12,  11)
       Mesh    3
       Max CFL number:  0.94E+00 at (   7,   9,  16)
       Max divergence:  0.20E-10 at (  16,  16,   1)
       Min divergence: -0.13E-10 at (  16,  15,  13)
       Max VN number:   0.37E+00 at (  12,   6,  11)
       Mesh    4
       Max CFL number:  0.74E+00 at (   9,   1,   7)
       Max divergence:  0.20E-10 at (   1,  16,   1)
       Min divergence: -0.13E-10 at (   1,  15,  13)
       Max VN number:   0.26E+00 at (   5,   6,   8)
       Mesh    5
       Max CFL number:  0.72E+00 at (  16,   7,   8)
       Max divergence:  0.19E-10 at (  16,  10,   1)
       Min divergence: -0.16E-10 at (  16,  16,   2)
       Max VN number:   0.23E+00 at (  16,   7,   6)
       Mesh    6
       Max CFL number:  0.92E+00 at (  10,  16,   9)
       Max divergence:  0.20E-10 at (   1,  16,   9)
       Min divergence: -0.18E-10 at (   1,  15,   1)
       Max VN number:   0.36E+00 at (   5,  11,   6)
       Mesh    7
       Max CFL number:  0.91E+00 at (   7,   9,   1)
       Max divergence:  0.19E-10 at (  16,   1,   8)
       Min divergence: -0.15E-10 at (  16,   1,  16)
       Max VN number:   0.36E+00 at (  12,   6,   6)
       Mesh    8
       Max CFL number:  0.93E+00 at (  10,   1,   9)
       Max divergence:  0.18E-10 at (   1,   3,   1)
       Min divergence: -0.18E-10 at (   1,   1,   3)
       Max VN number:   0.37E+00 at (   5,   6,   6)
 
       Time Step      80   June 26, 2020  16:20:33
       Step Size:    0.894E-01 s, Total Time:       7.99 s
       Pressure Iterations:      9
       Maximum Velocity Error:  0.10E-02 on Mesh   1 at (   8  11   7)
       Maximum Pressure Error:  0.36E-09 on Mesh   1 at (  16  15  16)
       ScaRC: iterations    28, residual  0.97E-08, convergence rate   0.49E+00
       ---------------------------------------------------------------
       Mesh    1
       Max CFL number:  0.53E+00 at (  16,   8,   8)
       Max divergence:  0.29E-10 at (  16,   1,   1)
       Min divergence: -0.17E-10 at (  16,   4,   5)
       Max VN number:   0.25E+00 at (   6,  11,   7)
       Mesh    2
       Max CFL number:  0.79E+00 at (   8,  14,   7)
       Max divergence:  0.29E-10 at (   1,   1,   1)
       Min divergence: -0.26E-10 at (   1,  16,   8)
       Max VN number:   0.37E+00 at (   6,  12,   7)
       Mesh    3
       Max CFL number:  0.84E+00 at (  11,   9,  11)
       Max divergence:  0.22E-10 at (  16,   1,  14)
       Min divergence: -0.19E-10 at (  16,   2,   1)
       Max VN number:   0.42E+00 at (   7,   8,   9)
       Mesh    4
       Max CFL number:  0.77E+00 at (   9,   1,   8)
       Max divergence:  0.25E-10 at (   1,   1,  13)
       Min divergence: -0.19E-10 at (  12,   1,   4)
       Max VN number:   0.28E+00 at (   5,   6,   8)
       Mesh    5
       Max CFL number:  0.73E+00 at (  16,   7,   6)
       Max divergence:  0.31E-10 at (  16,  16,   7)
       Min divergence: -0.31E-10 at (  16,  16,  14)
       Max VN number:   0.23E+00 at (  16,   7,  10)
       Mesh    6
       Max CFL number:  0.84E+00 at (  10,  15,   9)
       Max divergence:  0.29E-10 at (   1,  16,   8)
       Min divergence: -0.26E-10 at (   1,  16,  14)
       Max VN number:   0.35E+00 at (   5,  11,   6)
       Mesh    7
       Max CFL number:  0.85E+00 at (   7,   9,   3)
       Max divergence:  0.27E-10 at (  16,   1,   7)
       Min divergence: -0.28E-10 at (  16,   1,   2)
       Max VN number:   0.37E+00 at (  12,   6,   6)
       Mesh    8
       Max CFL number:  0.82E+00 at (   7,   6,   9)
       Max divergence:  0.33E-10 at (   1,   1,   8)
       Min divergence: -0.25E-10 at (   1,   1,  13)
       Max VN number:   0.42E+00 at (  10,   8,   8)
 
       Time Step      90   June 26, 2020  16:20:35
       Step Size:    0.894E-01 s, Total Time:       8.88 s
       Pressure Iterations:     13
       Maximum Velocity Error:  0.98E-03 on Mesh   7 at (  12   6  11)
       Maximum Pressure Error:  0.39E-09 on Mesh   6 at (   1   4  16)
       ScaRC: iterations    28, residual  0.98E-08, convergence rate   0.49E+00
       ---------------------------------------------------------------
       Mesh    1
       Max CFL number:  0.53E+00 at (  16,   8,  10)
       Max divergence:  0.27E-10 at (  16,   9,  16)
       Min divergence: -0.25E-10 at (  16,  16,  16)
       Max VN number:   0.25E+00 at (   6,  11,   7)
       Mesh    2
       Max CFL number:  0.81E+00 at (   8,  13,   8)
       Max divergence:  0.25E-10 at (   1,   9,  16)
       Min divergence: -0.28E-10 at (   1,  15,  16)
       Max VN number:   0.40E+00 at (   6,  12,   7)
       Mesh    3
       Max CFL number:  0.82E+00 at (  10,   8,  11)
       Max divergence:  0.26E-10 at (   1,  16,  16)
       Min divergence: -0.26E-10 at (  16,   9,  16)
       Max VN number:   0.39E+00 at (   9,  10,  15)
       Mesh    4
       Max CFL number:  0.81E+00 at (   9,   1,   9)
       Max divergence:  0.24E-10 at (   1,   4,  16)
       Min divergence: -0.19E-10 at (   1,   8,  16)
       Max VN number:   0.29E+00 at (   5,   6,   8)
       Mesh    5
       Max CFL number:  0.74E+00 at (  16,   7,   8)
       Max divergence:  0.27E-10 at (  16,   9,   1)
       Min divergence: -0.25E-10 at (  16,   3,   1)
       Max VN number:   0.24E+00 at (  16,   7,  10)
       Mesh    6
       Max CFL number:  0.80E+00 at (   7,  10,   7)
       Max divergence:  0.25E-10 at (   1,   9,   1)
       Min divergence: -0.28E-10 at (   1,  15,   1)
       Max VN number:   0.37E+00 at (   5,  10,   6)
       Mesh    7
       Max CFL number:  0.79E+00 at (  10,   7,   7)
       Max divergence:  0.28E-10 at (  16,   3,   1)
       Min divergence: -0.28E-10 at (  16,   9,   1)
       Max VN number:   0.38E+00 at (  12,   6,   7)
       Mesh    8
       Max CFL number:  0.76E+00 at (   8,   6,   9)
       Max divergence:  0.25E-10 at (   1,   3,   1)
       Min divergence: -0.18E-10 at (   1,   8,   1)
       Max VN number:   0.37E+00 at (   8,   2,  10)
 
       Time Step     100   June 26, 2020  16:20:37
       Step Size:    0.894E-01 s, Total Time:       9.78 s
       Pressure Iterations:      8
       Maximum Velocity Error:  0.87E-03 on Mesh   5 at (  13  11  11)
       Maximum Pressure Error:  0.44E-09 on Mesh   6 at (   1  14  16)
       ScaRC: iterations    28, residual  0.65E-08, convergence rate   0.49E+00
       ---------------------------------------------------------------
       Mesh    1
       Max CFL number:  0.53E+00 at (  13,   8,  10)
       Max divergence:  0.13E-10 at (  16,   1,   1)
       Min divergence: -0.19E-10 at (  16,  16,  16)
       Max VN number:   0.24E+00 at (   6,   7,   7)
       Mesh    2
       Max CFL number:  0.86E+00 at (   9,  14,   9)
       Max divergence:  0.13E-10 at (  16,  16,   1)
       Min divergence: -0.17E-10 at (   1,  16,  16)
       Max VN number:   0.37E+00 at (   6,  12,   7)
       Mesh    3
       Max CFL number:  0.82E+00 at (  11,   9,  11)
       Max divergence:  0.15E-10 at (  16,   4,  16)
       Min divergence: -0.17E-10 at (  16,   1,  16)
       Max VN number:   0.39E+00 at (  12,   6,  11)
       Mesh    4
       Max CFL number:  0.85E+00 at (   9,   1,   9)
       Max divergence:  0.14E-10 at (   1,   4,  16)
       Min divergence: -0.14E-10 at (  12,   1,   4)
       Max VN number:   0.32E+00 at (   4,   6,  11)
       Mesh    5
       Max CFL number:  0.84E+00 at (  16,   7,   8)
       Max divergence:  0.17E-10 at (  16,   1,  16)
       Min divergence: -0.20E-10 at (  16,  16,   1)
       Max VN number:   0.28E+00 at (  16,   7,  10)
       Mesh    6
       Max CFL number:  0.85E+00 at (   1,   7,   8)
       Max divergence:  0.17E-10 at (   1,   1,  16)
       Min divergence: -0.19E-10 at (   1,  16,   1)
       Max VN number:   0.38E+00 at (  10,   7,   9)
       Mesh    7
       Max CFL number:  0.86E+00 at (  15,   8,  10)
       Max divergence:  0.21E-10 at (  16,  16,  16)
       Min divergence: -0.17E-10 at (  16,   1,  14)
       Max VN number:   0.37E+00 at (   7,   9,  10)
       Mesh    8
       Max CFL number:  0.85E+00 at (   1,   8,  10)
       Max divergence:  0.21E-10 at (   1,  16,  16)
       Min divergence: -0.18E-10 at (   1,   1,  14)
       Max VN number:   0.36E+00 at (  10,   8,   8)
 
       Time Step     200   June 26, 2020  16:21:05
       Step Size:    0.894E-01 s, Total Time:      18.71 s
       Pressure Iterations:      9
       Maximum Velocity Error:  0.91E-03 on Mesh   8 at (   3   6  10)
       Maximum Pressure Error:  0.67E-07 on Mesh   8 at (   5  10   9)
       ScaRC: iterations    28, residual  0.72E-08, convergence rate   0.49E+00
       ---------------------------------------------------------------
       Mesh    1
       Max CFL number:  0.54E+00 at (  15,   8,   9)
       Max divergence:  0.18E-10 at (  16,   9,  16)
       Min divergence: -0.18E-10 at (  16,  16,  15)
       Max VN number:   0.26E+00 at (   6,  11,  11)
       Mesh    2
       Max CFL number:  0.87E+00 at (   9,  16,   8)
       Max divergence:  0.17E-10 at (   1,   9,  16)
       Min divergence: -0.15E-10 at (   1,  15,  16)
       Max VN number:   0.35E+00 at (   6,  12,  10)
       Mesh    3
       Max CFL number:  0.86E+00 at (  11,  10,  11)
       Max divergence:  0.14E-10 at (  16,   4,  16)
       Min divergence: -0.14E-10 at (  16,   1,   3)
       Max VN number:   0.46E+00 at (  12,   6,  11)
       Mesh    4
       Max CFL number:  0.90E+00 at (   9,   1,   9)
       Max divergence:  0.13E-10 at (   1,   1,   9)
       Min divergence: -0.12E-10 at (  16,   1,  15)
       Max VN number:   0.29E+00 at (  10,   1,   7)
       Mesh    5
       Max CFL number:  0.83E+00 at (  15,   7,   7)
       Max divergence:  0.28E-10 at (  15,   7,   7)
       Min divergence: -0.27E-10 at (  16,   7,   7)
       Max VN number:   0.33E+00 at (  16,  11,  10)
       Mesh    6
       Max CFL number:  0.84E+00 at (   2,   7,   7)
       Max divergence:  0.24E-10 at (  10,  16,   6)
       Min divergence: -0.18E-10 at (   9,  16,   6)
       Max VN number:   0.48E+00 at (   8,   7,   8)
       Mesh    7
       Max CFL number:  0.83E+00 at (   7,   9,   1)
       Max divergence:  0.12E-08 at (  16,  10,  10)
       Min divergence: -0.11E-08 at (  16,   9,  10)
       Max VN number:   0.50E+00 at (   7,   8,  10)
       Mesh    8
       Max CFL number:  0.84E+00 at (   2,   9,  10)
       Max divergence:  0.11E-07 at (   4,  10,  10)
       Min divergence: -0.11E-07 at (   5,  10,  10)
       Max VN number:   0.44E+00 at (  10,   6,  10)
 
       Time Step     300   June 26, 2020  16:21:31
       Step Size:    0.894E-01 s, Total Time:      27.65 s
       Pressure Iterations:      9
       Maximum Velocity Error:  0.78E-03 on Mesh   8 at (   6   1   6)
       Maximum Pressure Error:  0.20E-02 on Mesh   8 at (   8   3   6)
       ScaRC: iterations    28, residual  0.63E-08, convergence rate   0.50E+00
       ---------------------------------------------------------------
       Mesh    1
       Max CFL number:  0.49E+00 at (  16,   8,   8)
       Max divergence:  0.13E-10 at (  16,   9,  16)
       Min divergence: -0.12E-10 at (  16,  14,  16)
       Max VN number:   0.24E+00 at (   6,   7,  11)
       Mesh    2
       Max CFL number:  0.90E+00 at (   9,  16,   9)
       Max divergence:  0.13E-10 at (   1,   9,  16)
       Min divergence: -0.98E-11 at (  10,  16,  14)
       Max VN number:   0.35E+00 at (   6,  12,   8)
       Mesh    3
       Max CFL number:  0.92E+00 at (   9,   9,  11)
       Max divergence:  0.10E-10 at (  16,   1,  15)
       Min divergence: -0.14E-10 at (  16,   7,  16)
       Max VN number:   0.49E+00 at (  12,   6,  11)
       Mesh    4
       Max CFL number:  0.91E+00 at (   9,   1,   9)
       Max divergence:  0.11E-10 at (   4,   1,  13)
       Min divergence: -0.14E-10 at (   1,   8,  16)
       Max VN number:   0.29E+00 at (  10,   1,  11)
       Mesh    5
       Max CFL number:  0.80E+00 at (  15,   7,   9)
       Max divergence:  0.27E-06 at (   9,  11,  10)
       Min divergence: -0.27E-06 at (  10,  11,  10)
       Max VN number:   0.31E+00 at (  13,  11,  10)
       Mesh    6
       Max CFL number:  0.80E+00 at (   2,   7,   7)
       Max divergence:  0.74E-04 at (   7,  16,   6)
       Min divergence: -0.55E-04 at (   8,  16,   6)
       Max VN number:   0.41E+00 at (   8,   7,   6)
       Mesh    7
       Max CFL number:  0.92E+00 at (   7,   9,   5)
       Max divergence:  0.13E-05 at (  16,  10,   7)
       Min divergence: -0.14E-05 at (  16,  10,   8)
       Max VN number:   0.49E+00 at (   7,   8,  10)
       Mesh    8
       Max CFL number:  0.91E+00 at (   1,   9,  10)
       Max divergence:  0.33E-03 at (   8,   3,   6)
       Min divergence: -0.38E-03 at (   8,   4,   6)
       Max VN number:   0.36E+00 at (   5,   6,   6)
 
       Time Step     400   June 26, 2020  16:22:05
       Step Size:    0.803E-01 s, Total Time:      36.38 s
       Pressure Iterations:      8
       Maximum Velocity Error:  0.93E-03 on Mesh   8 at (   5  10   6)
       Maximum Pressure Error:  0.93E-03 on Mesh   5 at (   3   9   6)
       ScaRC: iterations    28, residual  0.44E-08, convergence rate   0.49E+00
       ---------------------------------------------------------------
       Mesh    1
       Max CFL number:  0.45E+00 at (  16,   8,   9)
       Max divergence:  0.34E-09 at (   3,  11,  16)
       Min divergence: -0.79E-11 at (  16,  16,  14)
       Max VN number:   0.23E+00 at (   6,  11,  11)
       Mesh    2
       Max CFL number:  0.84E+00 at (   9,  16,   9)
       Max divergence:  0.90E-11 at (  12,  16,   4)
       Min divergence: -0.11E-10 at (   1,  16,  14)
       Max VN number:   0.32E+00 at (   6,  12,  10)
       Mesh    3
       Max CFL number:  0.82E+00 at (  10,  10,  11)
       Max divergence:  0.70E-11 at (  16,   1,  16)
       Min divergence: -0.83E-11 at (  16,   1,  13)
       Max VN number:   0.43E+00 at (  12,   6,  11)
       Mesh    4
       Max CFL number:  0.79E+00 at (   9,   1,   9)
       Max divergence:  0.91E-11 at (  12,   1,   4)
       Min divergence: -0.91E-11 at (   1,   1,  13)
       Max VN number:   0.26E+00 at (  10,   1,   7)
       Mesh    5
       Max CFL number:  0.69E+00 at (  16,   7,   7)
       Max divergence:  0.33E-03 at (   2,   9,   6)
       Min divergence: -0.32E-03 at (   3,   9,   6)
       Max VN number:   0.26E+00 at (  15,   9,   6)
       Mesh    6
       Max CFL number:  0.75E+00 at (  10,  16,   6)
       Max divergence:  0.37E-06 at (   2,  11,   7)
       Min divergence: -0.86E-06 at (   1,  11,   6)
       Max VN number:   0.38E+00 at (   8,   7,   8)
       Mesh    7
       Max CFL number:  0.86E+00 at (  11,   6,   7)
       Max divergence:  0.28E-08 at (  16,   9,  10)
       Min divergence: -0.24E-08 at (  16,   8,  10)
       Max VN number:   0.38E+00 at (   7,   7,  10)
       Mesh    8
       Max CFL number:  0.82E+00 at (   1,   9,  10)
       Max divergence:  0.19E-06 at (  10,   1,   6)
       Min divergence: -0.12E-06 at (   9,   1,   6)
       Max VN number:   0.39E+00 at (  10,   8,   9)
 
       Time Step     500   June 26, 2020  16:22:31
       Step Size:    0.803E-01 s, Total Time:      44.42 s
       Pressure Iterations:      6
       Maximum Velocity Error:  0.91E-03 on Mesh   5 at (  11   7  11)
       Maximum Pressure Error:  0.77E-05 on Mesh   5 at (   7  11   6)
       ScaRC: iterations    29, residual  0.50E-08, convergence rate   0.49E+00
       ---------------------------------------------------------------
       Mesh    1
       Max CFL number:  0.46E+00 at (  13,   8,  10)
       Max divergence:  0.53E-07 at (   2,  10,  16)
       Min divergence: -0.12E-10 at (   6,   9,  15)
       Max VN number:   0.22E+00 at (   6,  11,  11)
       Mesh    2
       Max CFL number:  0.82E+00 at (   9,  16,  10)
       Max divergence:  0.12E-10 at (   1,   7,  14)
       Min divergence: -0.96E-11 at (   1,   1,   1)
       Max VN number:   0.31E+00 at (   6,  12,   7)
       Mesh    3
       Max CFL number:  0.79E+00 at (  10,   9,  11)
       Max divergence:  0.88E-11 at (  16,   1,  14)
       Min divergence: -0.10E-10 at (  16,  14,   9)
       Max VN number:   0.42E+00 at (  12,   6,  11)
       Mesh    4
       Max CFL number:  0.82E+00 at (   9,   1,  10)
       Max divergence:  0.11E-10 at (   8,   1,   9)
       Min divergence: -0.10E-10 at (   1,  14,   9)
       Max VN number:   0.26E+00 at (  10,   1,  11)
       Mesh    5
       Max CFL number:  0.84E+00 at (  14,   7,   7)
       Max divergence:  0.42E-05 at (   6,  11,   6)
       Min divergence: -0.48E-05 at (   6,  12,   7)
       Max VN number:   0.30E+00 at (  16,  11,  10)
       Mesh    6
       Max CFL number:  0.80E+00 at (   6,  10,   6)
       Max divergence:  0.10E-07 at (   3,   8,   6)
       Min divergence: -0.18E-07 at (   4,  10,   7)
       Max VN number:   0.38E+00 at (  10,  10,  10)
       Mesh    7
       Max CFL number:  0.84E+00 at (  16,   9,  10)
       Max divergence:  0.13E-09 at (   2,   1,   9)
       Min divergence: -0.29E-10 at (  16,   9,  10)
       Max VN number:   0.47E+00 at (   7,   8,  10)
       Mesh    8
       Max CFL number:  0.84E+00 at (   1,   9,  10)
       Max divergence:  0.56E-10 at (   3,   9,  10)
       Min divergence: -0.54E-10 at (   2,   9,  10)
       Max VN number:   0.34E+00 at (  10,   8,   9)
 
       Time Step     600   June 26, 2020  16:22:56
       Step Size:    0.803E-01 s, Total Time:      52.45 s
       Pressure Iterations:      9
       Maximum Velocity Error:  0.92E-03 on Mesh   6 at (   3  11  11)
       Maximum Pressure Error:  0.20E-04 on Mesh   5 at (   8  12   7)
       ScaRC: iterations    29, residual  0.57E-08, convergence rate   0.49E+00
       ---------------------------------------------------------------
       Mesh    1
       Max CFL number:  0.47E+00 at (  10,   8,   8)
       Max divergence:  0.47E-07 at (   4,  10,  16)
       Min divergence: -0.92E-07 at (   2,  11,  16)
       Max VN number:   0.22E+00 at (   6,   7,   7)
       Mesh    2
       Max CFL number:  0.79E+00 at (   9,  16,   9)
       Max divergence:  0.11E-10 at (   8,  16,   9)
       Min divergence: -0.12E-10 at (   1,   1,   1)
       Max VN number:   0.32E+00 at (   6,  12,   8)
       Mesh    3
       Max CFL number:  0.81E+00 at (   9,  10,  11)
       Max divergence:  0.11E-10 at (   8,   9,  16)
       Min divergence: -0.10E-10 at (   1,  16,  16)
       Max VN number:   0.40E+00 at (   7,   8,   9)
       Mesh    4
       Max CFL number:  0.79E+00 at (   9,   1,   9)
       Max divergence:  0.11E-10 at (   8,   1,   9)
       Min divergence: -0.11E-10 at (  16,   1,   1)
       Max VN number:   0.26E+00 at (  10,   1,  11)
       Mesh    5
       Max CFL number:  0.79E+00 at (  16,   7,   7)
       Max divergence:  0.11E-05 at (   6,   7,   6)
       Min divergence: -0.14E-05 at (   8,  12,   7)
       Max VN number:   0.29E+00 at (  16,  11,  10)
       Mesh    6
       Max CFL number:  0.81E+00 at (   2,   7,   7)
       Max divergence:  0.36E-10 at (   2,   7,   6)
       Min divergence: -0.10E-09 at (   3,   9,   6)
       Max VN number:   0.44E+00 at (  10,   9,  10)
       Mesh    7
       Max CFL number:  0.81E+00 at (  15,   6,  10)
       Max divergence:  0.30E-09 at (  16,  10,  10)
       Min divergence: -0.21E-09 at (  16,   9,  10)
       Max VN number:   0.47E+00 at (   7,   8,  10)
       Mesh    8
       Max CFL number:  0.76E+00 at (   1,  10,  10)
       Max divergence:  0.89E-09 at (   4,  10,  10)
       Min divergence: -0.86E-09 at (   3,  10,  10)
       Max VN number:   0.39E+00 at (   6,   7,  10)
 
       Time Step     694   June 26, 2020  16:23:18
       Step Size:    0.735E-01 s, Total Time:      60.00 s
       Pressure Iterations:      7
       Maximum Velocity Error:  0.93E-03 on Mesh   6 at (   6  13   6)
       Maximum Pressure Error:  0.96E-05 on Mesh   5 at (   9  12   7)
       ScaRC: iterations    29, residual  0.62E-08, convergence rate   0.49E+00
       ---------------------------------------------------------------
       Mesh    1
       Max CFL number:  0.42E+00 at (  13,   8,  10)
       Max divergence:  0.31E-07 at (   5,  11,  15)
       Min divergence: -0.62E-07 at (   3,  11,  16)
       Max VN number:   0.20E+00 at (   6,   7,  11)
       Mesh    2
       Max CFL number:  0.72E+00 at (   9,  16,  10)
       Max divergence:  0.13E-08 at (   6,  12,   9)
       Min divergence: -0.77E-09 at (   6,  11,   9)
       Max VN number:   0.30E+00 at (   6,  12,  11)
       Mesh    3
       Max CFL number:  0.74E+00 at (   9,   9,  11)
       Max divergence:  0.25E-10 at (  16,   7,  11)
       Min divergence: -0.25E-10 at (  16,   8,  10)
       Max VN number:   0.37E+00 at (  12,   6,  11)
       Mesh    4
       Max CFL number:  0.72E+00 at (   9,   1,  10)
       Max divergence:  0.12E-09 at (  10,   1,  10)
       Min divergence: -0.18E-09 at (   9,   1,   7)
       Max VN number:   0.23E+00 at (  10,   1,   7)
       Mesh    5
       Max CFL number:  0.69E+00 at (  16,   7,   7)
       Max divergence:  0.29E-06 at (   8,   9,   5)
       Min divergence: -0.38E-06 at (  11,   9,   5)
       Max VN number:   0.25E+00 at (  16,  11,  10)
       Mesh    6
       Max CFL number:  0.69E+00 at (   1,   7,   7)
       Max divergence:  0.12E-10 at (   1,  16,   8)
       Min divergence: -0.12E-10 at (   1,  16,  14)
       Max VN number:   0.32E+00 at (   8,   7,   8)
       Mesh    7
       Max CFL number:  0.77E+00 at (  11,   6,   5)
       Max divergence:  0.24E-10 at (   2,   1,   8)
       Min divergence: -0.14E-10 at (  16,   1,   3)
       Max VN number:   0.40E+00 at (   7,   6,  10)
       Mesh    8
       Max CFL number:  0.75E+00 at (   1,   8,  10)
       Max divergence:  0.82E-10 at (   7,  10,   7)
       Min divergence: -0.75E-10 at (   6,  10,   7)
       Max VN number:   0.34E+00 at (  10,   9,   9)
 


 Time Stepping Wall Clock Time (s):      331.085
 Total Elapsed Wall Clock Time (s):      331.679

STOP: FDS completed successfully (CHID: duct_flow_scarc)
