
 Fire Dynamics Simulator

 Current Date     : June 26, 2020  16:17:51
 Revision         : -AMG
 Revision Date    : Fri Jun 26 15:19:14 2020 +0200
 Compiler         : Intel ifort 19.0.5.281
 Compilation Date : Jun 26, 2020 15:25:32

 MPI Enabled;    Number of MPI Processes:       5
 OpenMP Enabled; Number of OpenMP Threads:      4

 MPI version: 3.1
 MPI library version: Intel(R) MPI Library 2018 Update 1 for Linux* OS


 Job TITLE        : Silly Multi-Mesh Test
 Job ID string    : hallways


 Grid Dimensions, Mesh     1

   Cells in the X Direction            48
   Cells in the Y Direction            16
   Cells in the Z Direction            16
   Number of Grid Cells             12288


 Physical Dimensions, Mesh     1

   Length (m)                       3.000
   Width  (m)                       1.000
   Height (m)                       1.000
   Initial Time Step (s)            0.049

 Grid Dimensions, Mesh     2

   Cells in the X Direction            16
   Cells in the Y Direction            64
   Cells in the Z Direction            16
   Number of Grid Cells             16384


 Physical Dimensions, Mesh     2

   Length (m)                       1.000
   Width  (m)                       4.000
   Height (m)                       1.000
   Initial Time Step (s)            0.049

 Grid Dimensions, Mesh     3

   Cells in the X Direction            64
   Cells in the Y Direction            16
   Cells in the Z Direction            16
   Number of Grid Cells             16384


 Physical Dimensions, Mesh     3

   Length (m)                       4.000
   Width  (m)                       1.000
   Height (m)                       1.000
   Initial Time Step (s)            0.049

 Grid Dimensions, Mesh     4

   Cells in the X Direction            16
   Cells in the Y Direction            16
   Cells in the Z Direction            48
   Number of Grid Cells             12288


 Physical Dimensions, Mesh     4

   Length (m)                       1.000
   Width  (m)                       1.000
   Height (m)                       3.000
   Initial Time Step (s)            0.049

 Grid Dimensions, Mesh     5

   Cells in the X Direction            64
   Cells in the Y Direction            16
   Cells in the Z Direction            16
   Number of Grid Cells             16384


 Physical Dimensions, Mesh     5

   Length (m)                       4.000
   Width  (m)                       1.000
   Height (m)                       1.000
   Initial Time Step (s)            0.049

Total Number of Grid Cells         73728


 Miscellaneous Parameters

   Simulation Start Time (s)          0.0
   Simulation End Time (s)           60.0
   LES Calculation
   Eddy Viscosity:           Deardorff Model (C_DEARDORFF = 0.10)
   Near-wall Eddy Viscosity: Smagorinsky with Van Driest damping (C_SMAGORINSKY = 0.20)
   Turbulent Prandtl Number:         0.50
   Turbulent Schmidt Number:         0.50
   Ambient Temperature (C):         20.00


 Mass Fraction Transformation Matrix to Convert Species Mixtures (Columns) to Primitive Species (Rows)

                         AIR       PROPANE   PRODUCTS
   PROPANE               0.000000  1.000000  0.000000
   NITROGEN              0.762470  0.000000  0.716510
   OXYGEN                0.230997  0.000000  0.000000
   CARBON DIOXIDE        0.000591  0.000000  0.178848
   CARBON MONOXIDE       0.000000  0.000000  0.000000
   WATER VAPOR           0.005941  0.000000  0.104039
   SOOT                  0.000000  0.000000  0.000603
   HYDROGEN              0.000000  0.000000  0.000000


 Primitive Species Information

   PROPANE
   Gas Species
   Molecular Weight (g/mol)            44.09562
   Ambient Density (kg/m^3)            1.833
   Enthalpy of Formation (J/kg)       -2.37E+06

   NITROGEN
   Gas Species
   Molecular Weight (g/mol)            28.01340
   Ambient Density (kg/m^3)            1.165
   Enthalpy of Formation (J/kg)        0.00E+00

   OXYGEN
   Gas Species
   Molecular Weight (g/mol)            31.99880
   Ambient Density (kg/m^3)            1.330
   Enthalpy of Formation (J/kg)        0.00E+00

   CARBON DIOXIDE
   Gas Species
   Molecular Weight (g/mol)            44.00950
   Ambient Density (kg/m^3)            1.830
   Enthalpy of Formation (J/kg)       -8.94E+06

   CARBON MONOXIDE
   Gas Species
   Molecular Weight (g/mol)            28.01010
   Ambient Density (kg/m^3)            1.164
   Enthalpy of Formation (J/kg)       -3.95E+06

   WATER VAPOR
   Gas Species
   Molecular Weight (g/mol)            18.01528
   Ambient Density (kg/m^3)            0.749
   Enthalpy of Formation (J/kg)       -1.34E+07

   SOOT
   Gas Species
   Molecular Weight (g/mol)            10.91042
   Ambient Density (kg/m^3)            0.454
   Enthalpy of Formation (J/kg)        0.00E+00

   HYDROGEN
   Gas Species
   Molecular Weight (g/mol)             2.01588
   Ambient Density (kg/m^3)            0.084
   Enthalpy of Formation (J/kg)        0.00E+00


 Tracked (Lumped) Species Information

   AIR
   Molecular Weight (g/mol)            28.75199
   Ambient Density (kg/m^3)            1.195
   Initial Mass Fraction               1.000
   Enthalpy of Formation (J/kg)     -8.50E+04

   Sub Species                    Mass Fraction     Mole Fraction
   NITROGEN                       7.624701E-01      7.825730E-01
   OXYGEN                         2.309974E-01      2.075589E-01
   CARBON DIOXIDE                 5.914651E-04      3.864120E-04
   WATER VAPOR                    5.940984E-03      9.481679E-03
 
     Viscosity (kg/m/s) Ambient,  293 K:  1.80E-05
                                  500 K:  2.61E-05
                                 1000 K:  4.13E-05
                                 1500 K:  5.37E-05
   Therm. Cond. (W/m/K) Ambient,  293 K:  2.56E-02
                                  500 K:  3.81E-02
                                 1000 K:  6.69E-02
                                 1500 K:  9.25E-02
        Enthalpy (J/kg) Ambient,  293 K: -9.01E+04
                                  500 K:  1.22E+05
                                 1000 K:  6.72E+05
                                 1500 K:  1.27E+06
    Spec. Heat (J/kg/K) Ambient,  293 K:  1.02E+03
                                  500 K:  1.04E+03
                                 1000 K:  1.16E+03
                                 1500 K:  1.23E+03
   Diff. Coeff. (m^2/s) Ambient,  293 K:  1.99E-05
                                  500 K:  4.96E-05
                                 1000 K:  1.58E-04
                                 1500 K:  3.09E-04

   PROPANE
   Molecular Weight (g/mol)            44.09562
   Ambient Density (kg/m^3)            1.833
   Initial Mass Fraction               0.000
   Enthalpy of Formation (J/kg)     -2.37E+06

   Sub Species                    Mass Fraction     Mole Fraction
   PROPANE                        1.000000E+00      1.000000E+00
 
     Viscosity (kg/m/s) Ambient,  293 K:  8.08E-06
                                  500 K:  1.31E-05
                                 1000 K:  2.23E-05
                                 1500 K:  2.96E-05
   Therm. Cond. (W/m/K) Ambient,  293 K:  1.66E-02
                                  500 K:  4.18E-02
                                 1000 K:  1.11E-01
                                 1500 K:  1.72E-01
        Enthalpy (J/kg) Ambient,  293 K: -2.38E+06
                                  500 K: -1.95E+06
                                 1000 K: -2.77E+05
                                 1500 K:  1.90E+06
    Spec. Heat (J/kg/K) Ambient,  293 K:  1.65E+03
                                  500 K:  2.55E+03
                                 1000 K:  3.96E+03
                                 1500 K:  4.67E+03
   Diff. Coeff. (m^2/s) Ambient,  293 K:  1.11E-05
                                  500 K:  2.86E-05
                                 1000 K:  9.32E-05
                                 1500 K:  1.83E-04

   PRODUCTS
   Molecular Weight (g/mol)            28.19160
   Ambient Density (kg/m^3)            1.172
   Initial Mass Fraction               0.000
   Enthalpy of Formation (J/kg)     -3.00E+06

   Sub Species                    Mass Fraction     Mole Fraction
   NITROGEN                       7.165100E-01      7.210680E-01
   CARBON DIOXIDE                 1.788479E-01      1.145664E-01
   CARBON MONOXIDE                0.000000E+00      0.000000E+00
   WATER VAPOR                    1.040393E-01      1.628081E-01
   SOOT                           6.027786E-04      1.557528E-03
 
     Viscosity (kg/m/s) Ambient,  293 K:  1.61E-05
                                  500 K:  2.39E-05
                                 1000 K:  3.89E-05
                                 1500 K:  5.14E-05
   Therm. Cond. (W/m/K) Ambient,  293 K:  2.34E-02
                                  500 K:  3.62E-02
                                 1000 K:  6.71E-02
                                 1500 K:  9.63E-02
        Enthalpy (J/kg) Ambient,  293 K: -3.00E+06
                                  500 K: -2.77E+06
                                 1000 K: -2.16E+06
                                 1500 K: -1.48E+06
    Spec. Heat (J/kg/K) Ambient,  293 K:  1.09E+03
                                  500 K:  1.14E+03
                                 1000 K:  1.30E+03
                                 1500 K:  1.40E+03
   Diff. Coeff. (m^2/s) Ambient,  293 K:  1.95E-05
                                  500 K:  4.95E-05
                                 1000 K:  1.60E-04
                                 1500 K:  3.15E-04


 Gas Phase Reaction Information

   Fuel                                           Heat of Combustion (kJ/kg)
   PROPANE                                                        45998.9362

   Stoichiometry

   Primitive Species Stoich. Coeff.
   Species ID                                                          Molar
   PROPANE                                                         -1.000000
   OXYGEN                                                          -4.962615
   CARBON DIOXIDE                                                   2.963626
   WATER VAPOR                                                      3.997979
   SOOT                                                             0.040416

   Tracked (Lumped) Species Stoich. Coeff.
   Species ID                                             Molar         Mass
   AIR                                               -23.909431   -15.589840
   PROPANE                                            -1.000000    -1.000000
   PRODUCTS                                           25.948837    16.589840

   Reaction Kinetics

   Arrhenius Parameters
   Pre-exponential:    Infinite
   Activation Energy:  N/A

   ODE Solver:  EXPLICIT EULER
   Extinction Model:  EXTINCTION 2
   Auto-Ignition Temperature (K):       0.0
   Critical Flame Temperature (K):   1720.2


 Material Information


 Surface Conditions

   0 INERT (DEFAULT)

   1 FIRE
     HRR Per Unit Area (kW/m2)       1000.0
     PROPANE Mass Flux (kg/s/m2)   2.17E-02

   2 OPEN
     Passive Vent to Atmosphere

   3 MIRROR
     Symmetry Plane

   4 INTERPOLATED

   5 PERIODIC

   6 HVAC

   7 MASSLESS TRACER

   8 DROPLET

   9 EVACUATION_OUTFLOW
     Normal Velocity (m/s)         0.000

  10 MASSLESS TARGET

  11 PERIODIC WIND


 Slice File Information, Mesh     1

   Sampling Interval (s)             0.060

   1 Nodes:   0  48   8   8   0  16, Quantity: TEMPERATURE
   2 Nodes:   0  48   8   8   0  16, Quantity: U-VELOCITY
   3 Nodes:   0  48   8   8   0  16, Quantity: V-VELOCITY
   4 Nodes:   0  48   8   8   0  16, Quantity: W-VELOCITY


 Radiation Model Information

   Number of control angles  104
   Time step increment         3
   Angle increment             5
   Theta band N_phi   Solid angle
     1:        4     0.120
     2:       12     0.114
     3:       16     0.127
     4:       20     0.120
     5:       20     0.120
     6:       16     0.127
     7:       12     0.114
     8:        4     0.120
   Using gray gas absorption.
   Mean beam length  0.100 m
 
 

 Run Time Diagnostics

       Time Step       1   June 26, 2020  16:17:51
       Step Size:    0.494E-01 s, Total Time:       0.05 s
       Pressure Iterations:      1
       Maximum Velocity Error:  0.50E-03 on Mesh   4 at (   0  15  48)
       Maximum Pressure Error:  0.17E-01 on Mesh   1 at (  16   6   1)
       ---------------------------------------------------------------
       Mesh    1
       Max CFL number:  0.15E-01 at (  27,   6,  13)
       Max divergence:  0.20E-05 at (  16,   9,   2)
       Min divergence: -0.31E-02 at (  16,   9,   1)
       Max VN number:   0.12E-01 at (  18,  10,   7)
       No. of Lagrangian Particles:            36
       Mesh    2
       Max CFL number:  0.15E-01 at (  13,  23,   4)
       Max divergence:  0.11E-05 at (  15,  32,   5)
       Min divergence: -0.13E-05 at (   6,  51,   7)
       Max VN number:   0.13E-01 at (   8,  52,   3)
       Mesh    3
       Max CFL number:  0.15E-01 at (  19,  13,  11)
       Max divergence:  0.12E-05 at (  63,   5,   5)
       Min divergence: -0.13E-05 at (  21,   8,   7)
       Max VN number:   0.13E-01 at (  21,   8,   7)
       Mesh    4
       Max CFL number:  0.15E-01 at (  14,   4,  39)
       Max divergence:  0.12E-05 at (   5,  14,  10)
       Min divergence: -0.12E-05 at (   6,   5,  19)
       Max VN number:   0.13E-01 at (   5,  14,  10)
       Mesh    5
       Max CFL number:  0.15E-01 at (   4,   9,   7)
       Max divergence:  0.12E-05 at (   3,  14,   8)
       Min divergence: -0.12E-05 at (  21,  13,   2)
       Max VN number:   0.12E-01 at (   9,  11,  10)
 
       Time Step       2   June 26, 2020  16:17:51
       Step Size:    0.494E-01 s, Total Time:       0.10 s
       Pressure Iterations:      1
       Maximum Velocity Error:  0.12E-01 on Mesh   1 at (  49  10   2)
       Maximum Pressure Error:  0.16E+03 on Mesh   1 at (  13   9   1)
       ---------------------------------------------------------------
       Mesh    1
       Max CFL number:  0.15E-01 at (  27,   6,  13)
       Max divergence:  0.13E+01 at (  13,   6,   1)
       Min divergence: -0.12E-05 at (  10,  11,   3)
       Max VN number:   0.12E-01 at (  18,  10,   7)
       No. of Lagrangian Particles:           180
       Total Heat Release Rate:              4.194 kW
       Mesh    2
       Max CFL number:  0.15E-01 at (  12,  23,   4)
       Max divergence:  0.11E-05 at (  15,  32,   5)
       Min divergence: -0.13E-05 at (   6,  51,   7)
       Max VN number:   0.12E-01 at (   8,  52,   3)
       Mesh    3
       Max CFL number:  0.15E-01 at (  18,  13,  11)
       Max divergence:  0.12E-05 at (  63,   5,   5)
       Min divergence: -0.13E-05 at (  21,   8,   7)
       Max VN number:   0.13E-01 at (  21,   8,   7)
       Mesh    4
       Max CFL number:  0.15E-01 at (  14,   4,  39)
       Max divergence:  0.12E-05 at (   5,  14,  10)
       Min divergence: -0.12E-05 at (   6,   5,  19)
       Max VN number:   0.13E-01 at (   5,  14,  10)
       Mesh    5
       Max CFL number:  0.15E-01 at (   4,   9,   7)
       Max divergence:  0.12E-05 at (   3,  14,   8)
       Min divergence: -0.12E-05 at (  21,  13,   2)
       Max VN number:   0.12E-01 at (   9,  11,  10)
 
       Time Step       3   June 26, 2020  16:17:51
       Step Size:    0.494E-01 s, Total Time:       0.15 s
       Pressure Iterations:      1
       Maximum Velocity Error:  0.27E-01 on Mesh   1 at (  49   2   3)
       Maximum Pressure Error:  0.30E+03 on Mesh   1 at (  13   8   1)
       ---------------------------------------------------------------
       Mesh    1
       Max CFL number:  0.12E+00 at (  16,   8,   1)
       Max divergence:  0.29E+01 at (  14,   8,   1)
       Min divergence: -0.11E-05 at (  46,   7,   7)
       Max VN number:   0.16E-01 at (  16,   9,   2)
       No. of Lagrangian Particles:           360
       Total Heat Release Rate:              9.673 kW
       Radiation Loss to Boundaries:        -0.134 kW
       Mesh    2
       Max CFL number:  0.15E-01 at (  12,  23,   4)
       Max divergence:  0.11E-05 at (  15,  32,   5)
       Min divergence: -0.13E-05 at (   6,  51,   7)
       Max VN number:   0.12E-01 at (   7,  22,   2)
       Mesh    3
       Max CFL number:  0.15E-01 at (  18,  13,  11)
       Max divergence:  0.11E-05 at (  63,   5,   5)
       Min divergence: -0.13E-05 at (  21,   8,   7)
       Max VN number:   0.12E-01 at (  21,   8,   7)
       Mesh    4
       Max CFL number:  0.15E-01 at (  14,   4,  39)
       Max divergence:  0.12E-05 at (   5,  14,  10)
       Min divergence: -0.12E-05 at (   6,   5,  19)
       Max VN number:   0.13E-01 at (   5,  14,  10)
       Mesh    5
       Max CFL number:  0.15E-01 at (   4,   9,   7)
       Max divergence:  0.12E-05 at (   3,  14,   8)
       Min divergence: -0.12E-05 at (  21,  13,   2)
       Max VN number:   0.12E-01 at (   9,  11,  10)
 
       Time Step       4   June 26, 2020  16:17:51
       Step Size:    0.494E-01 s, Total Time:       0.20 s
       Pressure Iterations:      9
       Maximum Velocity Error:  0.31E-01 on Mesh   1 at (  49   1   1)
       Maximum Pressure Error:  0.58E+03 on Mesh   1 at (  11  11   1)
       ---------------------------------------------------------------
       Mesh    1
       Max CFL number:  0.24E+00 at (  16,   8,   1)
       Max divergence:  0.45E+01 at (  15,  10,   1)
       Min divergence: -0.10E-05 at (  46,   7,   7)
       Max VN number:   0.24E-01 at (  16,   9,   2)
       No. of Lagrangian Particles:           540
       Total Heat Release Rate:             15.948 kW
       Radiation Loss to Boundaries:        -0.549 kW
       Mesh    2
       Max CFL number:  0.15E-01 at (  12,  23,   4)
       Max divergence:  0.11E-05 at (  15,  32,   5)
       Min divergence: -0.13E-05 at (   6,  51,   7)
       Max VN number:   0.12E-01 at (   7,  22,   2)
       Mesh    3
       Max CFL number:  0.15E-01 at (  18,  13,  11)
       Max divergence:  0.12E-05 at (  63,   5,   5)
       Min divergence: -0.13E-05 at (  21,   8,   7)
       Max VN number:   0.12E-01 at (  21,   8,   7)
       Mesh    4
       Max CFL number:  0.15E-01 at (  14,   4,  39)
       Max divergence:  0.12E-05 at (   5,  14,  10)
       Min divergence: -0.12E-05 at (   6,   5,  19)
       Max VN number:   0.13E-01 at (   5,  14,  10)
       Mesh    5
       Max CFL number:  0.15E-01 at (   4,   9,   7)
       Max divergence:  0.12E-05 at (   3,  14,   8)
       Min divergence: -0.12E-05 at (  21,  13,   2)
       Max VN number:   0.12E-01 at (   9,  11,  10)
 
       Time Step       5   June 26, 2020  16:17:51
       Step Size:    0.494E-01 s, Total Time:       0.25 s
       Pressure Iterations:      2
       Maximum Velocity Error:  0.30E-01 on Mesh   1 at (  49   1  16)
       Maximum Pressure Error:  0.90E+03 on Mesh   1 at (  11  11   1)
       ---------------------------------------------------------------
       Mesh    1
       Max CFL number:  0.38E+00 at (  14,   8,   1)
       Max divergence:  0.57E+01 at (  14,   7,   1)
       Min divergence: -0.10E-05 at (  46,   7,   7)
       Max VN number:   0.36E-01 at (  11,  11,   2)
       No. of Lagrangian Particles:           720
       Total Heat Release Rate:             22.693 kW
       Radiation Loss to Boundaries:        -2.226 kW
       Mesh    2
       Max CFL number:  0.34E-01 at (   1,  16,   2)
       Max divergence:  0.11E-05 at (  15,  32,   5)
       Min divergence: -0.13E-05 at (   6,  51,   7)
       Max VN number:   0.13E-01 at (   1,  16,   2)
       Mesh    3
       Max CFL number:  0.15E-01 at (  18,  13,  11)
       Max divergence:  0.12E-05 at (  63,   5,   5)
       Min divergence: -0.13E-05 at (  21,   8,   7)
       Max VN number:   0.12E-01 at (  21,   8,   7)
       Mesh    4
       Max CFL number:  0.15E-01 at (  14,   4,  39)
       Max divergence:  0.12E-05 at (   5,  14,  10)
       Min divergence: -0.12E-05 at (   6,   5,  19)
       Max VN number:   0.13E-01 at (   5,  14,  10)
       Mesh    5
       Max CFL number:  0.15E-01 at (   4,   9,   7)
       Max divergence:  0.12E-05 at (  41,  12,  11)
       Min divergence: -0.12E-05 at (  21,  13,   2)
       Max VN number:   0.12E-01 at (   9,  11,  10)
 
       Time Step       6   June 26, 2020  16:17:51
       Step Size:    0.494E-01 s, Total Time:       0.30 s
       Pressure Iterations:      1
       Maximum Velocity Error:  0.21E-01 on Mesh   2 at (  17   1  14)
       Maximum Pressure Error:  0.20E+03 on Mesh   1 at (  13   8   1)
       ---------------------------------------------------------------
       Mesh    1
       Max CFL number:  0.47E+00 at (  16,   9,   1)
       Max divergence:  0.49E+01 at (  16,   9,   1)
       Min divergence: -0.28E-01 at (  16,   9,   2)
       Max VN number:   0.56E-01 at (  11,  11,   2)
       No. of Lagrangian Particles:           900
       Total Heat Release Rate:             29.685 kW
       Radiation Loss to Boundaries:        -9.744 kW
       Mesh    2
       Max CFL number:  0.54E-01 at (   1,  16,   2)
       Max divergence:  0.11E-05 at (  15,  32,   5)
       Min divergence: -0.13E-05 at (   6,  51,   7)
       Max VN number:   0.19E-01 at (   1,  16,   2)
       Mesh    3
       Max CFL number:  0.15E-01 at (  18,  13,  11)
       Max divergence:  0.12E-05 at (  63,   5,   5)
       Min divergence: -0.13E-05 at (  21,   8,   7)
       Max VN number:   0.12E-01 at (  21,   8,   7)
       Mesh    4
       Max CFL number:  0.15E-01 at (  14,   4,  39)
       Max divergence:  0.12E-05 at (   5,  14,  10)
       Min divergence: -0.12E-05 at (   6,   5,  19)
       Max VN number:   0.13E-01 at (   5,  14,  10)
       Mesh    5
       Max CFL number:  0.14E-01 at (   4,   9,   7)
       Max divergence:  0.12E-05 at (  41,  12,  11)
       Min divergence: -0.12E-05 at (  21,  13,   2)
       Max VN number:   0.12E-01 at (   9,  11,  10)
 
       Time Step       7   June 26, 2020  16:17:51
       Step Size:    0.494E-01 s, Total Time:       0.35 s
       Pressure Iterations:      3
       Maximum Velocity Error:  0.30E-01 on Mesh   1 at (  49   9   1)
       Maximum Pressure Error:  0.25E+04 on Mesh   1 at (  11   6   1)
       ---------------------------------------------------------------
       Mesh    1
       Max CFL number:  0.47E+00 at (  11,  11,   1)
       Max divergence:  0.21E+01 at (  11,  11,   1)
       Min divergence: -0.67E-01 at (  15,  10,   2)
       Max VN number:   0.84E-01 at (  11,  11,   2)
       No. of Lagrangian Particles:          1080
       Total Heat Release Rate:             36.767 kW
       Radiation Loss to Boundaries:       -28.476 kW
       Mesh    2
       Max CFL number:  0.70E-01 at (   1,  16,   2)
       Max divergence:  0.11E-05 at (  15,  32,   5)
       Min divergence: -0.13E-05 at (   6,  51,   7)
       Max VN number:   0.25E-01 at (   1,  16,   2)
       Mesh    3
       Max CFL number:  0.15E-01 at (  18,  13,  11)
       Max divergence:  0.12E-05 at (  63,   5,   5)
       Min divergence: -0.13E-05 at (  21,   8,   7)
       Max VN number:   0.12E-01 at (  21,   8,   7)
       Mesh    4
       Max CFL number:  0.14E-01 at (  14,   4,  39)
       Max divergence:  0.12E-05 at (   5,  14,  10)
       Min divergence: -0.12E-05 at (   6,   5,  19)
       Max VN number:   0.13E-01 at (   5,  14,  10)
       Mesh    5
       Max CFL number:  0.14E-01 at (   4,   9,   7)
       Max divergence:  0.12E-05 at (  41,  12,  11)
       Min divergence: -0.12E-05 at (  21,  13,   2)
       Max VN number:   0.12E-01 at (   9,  11,  10)
 
       Time Step       8   June 26, 2020  16:17:52
       Step Size:    0.494E-01 s, Total Time:       0.40 s
       Pressure Iterations:      1
       Maximum Velocity Error:  0.20E-01 on Mesh   2 at (  17   1  13)
       Maximum Pressure Error:  0.32E+04 on Mesh   1 at (  11   6   1)
       ---------------------------------------------------------------
       Mesh    1
       Max CFL number:  0.39E+00 at (  11,  11,   1)
       Max divergence:  0.64E+01 at (  11,  11,   1)
       Min divergence: -0.36E+00 at (  11,  11,   2)
       Max VN number:   0.11E+00 at (  11,  11,   2)
       No. of Lagrangian Particles:          1260
       Total Heat Release Rate:             43.830 kW
       Radiation Loss to Boundaries:       -25.052 kW
       Mesh    2
       Max CFL number:  0.66E-01 at (   1,  17,   2)
       Max divergence:  0.11E-05 at (  15,  32,   5)
       Min divergence: -0.13E-05 at (   6,  51,   7)
       Max VN number:   0.23E-01 at (   1,  16,   2)
       Mesh    3
       Max CFL number:  0.15E-01 at (  18,  13,  11)
       Max divergence:  0.12E-05 at (  63,   5,   5)
       Min divergence: -0.13E-05 at (  21,   8,   7)
       Max VN number:   0.12E-01 at (  21,   8,   7)
       Mesh    4
       Max CFL number:  0.14E-01 at (  14,   4,  39)
       Max divergence:  0.12E-05 at (   5,  14,  10)
       Min divergence: -0.12E-05 at (   6,   5,  19)
       Max VN number:   0.13E-01 at (   5,  14,  10)
       Mesh    5
       Max CFL number:  0.14E-01 at (   4,   9,   7)
       Max divergence:  0.12E-05 at (  41,  12,  11)
       Min divergence: -0.12E-05 at (  21,  13,   2)
       Max VN number:   0.12E-01 at (   9,  11,  10)
 
       Time Step       9   June 26, 2020  16:17:52
       Step Size:    0.494E-01 s, Total Time:       0.44 s
       Pressure Iterations:      6
       Maximum Velocity Error:  0.30E-01 on Mesh   1 at (  49   1   1)
       Maximum Pressure Error:  0.30E+04 on Mesh   1 at (  11   6   1)
       ---------------------------------------------------------------
       Mesh    1
       Max CFL number:  0.73E+00 at (  11,  11,   1)
       Max divergence:  0.66E+01 at (  11,  11,   1)
       Min divergence: -0.15E+01 at (  11,  11,   2)
       Max VN number:   0.18E+00 at (  11,  11,   2)
       No. of Lagrangian Particles:          1440
       Total Heat Release Rate:             25.222 kW
       Radiation Loss to Boundaries:       -18.413 kW
       Mesh    2
       Max CFL number:  0.67E-01 at (   1,  16,   6)
       Max divergence:  0.11E-05 at (  15,  32,   5)
       Min divergence: -0.13E-05 at (   6,  51,   7)
       Max VN number:   0.21E-01 at (   1,  16,   2)
       Mesh    3
       Max CFL number:  0.15E-01 at (  18,  13,  11)
       Max divergence:  0.12E-05 at (  63,   5,   5)
       Min divergence: -0.13E-05 at (  21,   8,   7)
       Max VN number:   0.12E-01 at (  21,   8,   7)
       Mesh    4
       Max CFL number:  0.14E-01 at (  14,   4,  39)
       Max divergence:  0.12E-05 at (   5,  14,  10)
       Min divergence: -0.12E-05 at (   6,   5,  19)
       Max VN number:   0.13E-01 at (   5,  14,  10)
       Mesh    5
       Max CFL number:  0.14E-01 at (   4,   9,   7)
       Max divergence:  0.12E-05 at (  41,  12,  11)
       Min divergence: -0.12E-05 at (  21,  13,   2)
       Max VN number:   0.12E-01 at (   9,  11,  10)
 
       Time Step      10   June 26, 2020  16:17:52
       Step Size:    0.494E-01 s, Total Time:       0.49 s
       Pressure Iterations:      1
       Maximum Velocity Error:  0.18E-01 on Mesh   1 at (  49  16   1)
       Maximum Pressure Error:  0.27E+04 on Mesh   1 at (  16  11   1)
       ---------------------------------------------------------------
       Mesh    1
       Max CFL number:  0.92E+00 at (  11,  11,   1)
       Max divergence:  0.12E+02 at (  16,   9,   1)
       Min divergence: -0.22E+01 at (  15,  11,   2)
       Max VN number:   0.26E+00 at (  11,  11,   2)
       No. of Lagrangian Particles:          1620
       Total Heat Release Rate:             26.122 kW
       Radiation Loss to Boundaries:        -8.641 kW
       Mesh    2
       Max CFL number:  0.61E-01 at (   1,  16,  12)
       Max divergence:  0.11E-05 at (  15,  32,   5)
       Min divergence: -0.13E-05 at (   6,  51,   7)
       Max VN number:   0.20E-01 at (   1,  16,   2)
       Mesh    3
       Max CFL number:  0.15E-01 at (  18,  13,  11)
       Max divergence:  0.12E-05 at (  24,   3,  13)
       Min divergence: -0.13E-05 at (  21,   8,   7)
       Max VN number:   0.12E-01 at (  21,   8,   7)
       Mesh    4
       Max CFL number:  0.14E-01 at (  14,   4,  39)
       Max divergence:  0.12E-05 at (   5,  14,  10)
       Min divergence: -0.12E-05 at (   6,   5,  19)
       Max VN number:   0.13E-01 at (   5,  14,  10)
       Mesh    5
       Max CFL number:  0.14E-01 at (   4,   9,   7)
       Max divergence:  0.12E-05 at (  41,  12,  11)
       Min divergence: -0.12E-05 at (  21,  13,   2)
       Max VN number:   0.12E-01 at (   9,  11,  10)
 
       Time Step      20   June 26, 2020  16:17:53
       Step Size:    0.211E-01 s, Total Time:       0.78 s
       Pressure Iterations:      3
       Maximum Velocity Error:  0.28E-01 on Mesh   1 at (  49  14   4)
       Maximum Pressure Error:  0.30E+04 on Mesh   1 at (  15   7   1)
       ---------------------------------------------------------------
       Mesh    1
       Max CFL number:  0.79E+00 at (  12,   7,   2)
       Max divergence:  0.35E+02 at (  15,   8,   1)
       Min divergence: -0.37E+01 at (  14,   7,   2)
       Max VN number:   0.20E+00 at (  16,   8,   3)
       No. of Lagrangian Particles:          2736
       Total Heat Release Rate:             69.813 kW
       Radiation Loss to Boundaries:       -21.042 kW
       Mesh    2
       Max CFL number:  0.60E-01 at (   1,  16,   6)
       Max divergence:  0.34E-05 at (   2,  16,   8)
       Min divergence: -0.12E-05 at (   6,  51,   7)
       Max VN number:   0.18E-01 at (   1,  16,   7)
       Mesh    3
       Max CFL number:  0.16E-01 at (   1,   1,  16)
       Max divergence:  0.14E-05 at (  24,   3,  13)
       Min divergence: -0.12E-05 at (  21,   8,   7)
       Max VN number:   0.51E-02 at (  21,   8,   7)
       Mesh    4
       Max CFL number:  0.59E-02 at (  14,   4,  39)
       Max divergence:  0.13E-05 at (   5,  14,  10)
       Min divergence: -0.12E-05 at (   6,   5,  19)
       Max VN number:   0.53E-02 at (   5,  14,  10)
       Mesh    5
       Max CFL number:  0.60E-02 at (   4,   9,   7)
       Max divergence:  0.12E-05 at (  41,  12,  11)
       Min divergence: -0.12E-05 at (  21,  13,   2)
       Max VN number:   0.50E-02 at (   9,  11,  10)
 
       Time Step      30   June 26, 2020  16:17:54
       Step Size:    0.113E-01 s, Total Time:       0.93 s
       Pressure Iterations:      4
       Maximum Velocity Error:  0.35E-01 on Mesh   1 at (  49   4  15)
       Maximum Pressure Error:  0.42E+04 on Mesh   1 at (  14   8   7)
       ---------------------------------------------------------------
       Mesh    1
       Max CFL number:  0.95E+00 at (  14,  10,   4)
       Max divergence:  0.16E+02 at (  15,   8,   4)
       Min divergence: -0.24E+01 at (  15,   7,   2)
       Max VN number:   0.19E+00 at (  14,   6,   6)
       No. of Lagrangian Particles:          3312
       Total Heat Release Rate:            106.571 kW
       Radiation Loss to Boundaries:       -30.465 kW
       Mesh    2
       Max CFL number:  0.66E-01 at (   1,  16,   6)
       Max divergence:  0.29E-03 at (   1,  14,   8)
       Min divergence: -0.12E-05 at (   6,  51,   7)
       Max VN number:   0.24E-01 at (   1,  16,  16)
       Radiation Loss to Boundaries:         0.022 kW
       Mesh    3
       Max CFL number:  0.24E-01 at (   1,   1,  16)
       Max divergence:  0.31E-05 at (  49,  16,  16)
       Min divergence: -0.11E-05 at (  25,   4,   3)
       Max VN number:   0.30E-02 at (  49,   5,  16)
       Mesh    4
       Max CFL number:  0.61E-02 at (   1,   5,   1)
       Max divergence:  0.26E-05 at (   1,  13,   1)
       Min divergence: -0.10E-05 at (   8,  11,  44)
       Max VN number:   0.28E-02 at (   2,  11,  26)
       Mesh    5
       Max CFL number:  0.32E-02 at (  15,   4,  12)
       Max divergence:  0.12E-05 at (  41,  12,  11)
       Min divergence: -0.12E-05 at (  21,  13,   2)
       Max VN number:   0.27E-02 at (   9,  11,  10)
 
       Time Step      40   June 26, 2020  16:17:54
       Step Size:    0.101E-01 s, Total Time:       1.03 s
       Pressure Iterations:      4
       Maximum Velocity Error:  0.31E-01 on Mesh   2 at (  17  64  15)
       Maximum Pressure Error:  0.17E+04 on Mesh   1 at (  14  10   7)
       ---------------------------------------------------------------
       Mesh    1
       Max CFL number:  0.92E+00 at (  14,   8,   5)
       Max divergence:  0.13E+02 at (  16,   9,   1)
       Min divergence: -0.47E+01 at (  13,  10,   4)
       Max VN number:   0.24E+00 at (  14,   5,   9)
       No. of Lagrangian Particles:          3708
       Total Heat Release Rate:            106.009 kW
       Radiation Loss to Boundaries:       -32.969 kW
       Mesh    2
       Max CFL number:  0.81E-01 at (   1,  16,  15)
       Max divergence:  0.27E-03 at (   1,  14,   9)
       Min divergence: -0.11E-05 at (   6,  51,   7)
       Max VN number:   0.30E-01 at (   1,  16,  16)
       Radiation Loss to Boundaries:         0.032 kW
       Mesh    3
       Max CFL number:  0.48E-01 at (   1,   1,  16)
       Max divergence:  0.89E-05 at (  49,  16,  16)
       Min divergence: -0.94E-06 at (  25,   4,   3)
       Max VN number:   0.10E-01 at (   1,   1,  16)
       Mesh    4
       Max CFL number:  0.18E-01 at (   1,  12,   1)
       Max divergence:  0.81E-05 at (   1,  13,   1)
       Min divergence: -0.82E-06 at (   5,   7,  47)
       Max VN number:   0.28E-02 at (   1,  14,  33)
       Mesh    5
       Max CFL number:  0.54E-02 at (  64,  14,   1)
       Max divergence:  0.17E-05 at (  64,  13,   2)
       Min divergence: -0.12E-05 at (  21,  13,   2)
       Max VN number:   0.24E-02 at (   9,  11,  10)
 
       Time Step      50   June 26, 2020  16:17:55
       Step Size:    0.111E-01 s, Total Time:       1.13 s
       Pressure Iterations:      2
       Maximum Velocity Error:  0.31E-01 on Mesh   3 at (  64  15  17)
       Maximum Pressure Error:  0.16E+04 on Mesh   1 at (  14   3  11)
       ---------------------------------------------------------------
       Mesh    1
       Max CFL number:  0.94E+00 at (  16,  10,   8)
       Max divergence:  0.14E+02 at (  12,  10,   1)
       Min divergence: -0.43E+01 at (  15,   8,   6)
       Max VN number:   0.29E+00 at (  16,  10,   8)
       No. of Lagrangian Particles:          4068
       Total Heat Release Rate:             83.056 kW
       Radiation Loss to Boundaries:       -22.322 kW
       Mesh    2
       Max CFL number:  0.86E-01 at (  16,  48,  15)
       Max divergence:  0.28E-03 at (   1,  14,   9)
       Min divergence: -0.10E-05 at (   6,  51,   7)
       Max VN number:   0.35E-01 at (  16,  49,  16)
       Radiation Loss to Boundaries:         0.034 kW
       Mesh    3
       Max CFL number:  0.70E-01 at (   1,   1,  16)
       Max divergence:  0.19E-04 at (  49,  16,  16)
       Min divergence: -0.91E-06 at (  25,   4,   3)
       Max VN number:   0.18E-01 at (   1,   1,  16)
       Mesh    4
       Max CFL number:  0.47E-01 at (   1,  12,   1)
       Max divergence:  0.20E-04 at (   1,   1,   1)
       Min divergence: -0.59E-06 at (   5,   7,  47)
       Max VN number:   0.96E-02 at (   1,  16,   1)
       Mesh    5
       Max CFL number:  0.20E-01 at (  64,  14,   1)
       Max divergence:  0.34E-05 at (  64,  13,   2)
       Min divergence: -0.12E-05 at (  21,  13,   2)
       Max VN number:   0.26E-02 at (   9,  11,  10)
 
       Time Step      60   June 26, 2020  16:17:56
       Step Size:    0.822E-02 s, Total Time:       1.22 s
       Pressure Iterations:      1
       Maximum Velocity Error:  0.29E-01 on Mesh   4 at (   0   4  34)
       Maximum Pressure Error:  0.24E+04 on Mesh   1 at (  15   8  11)
       ---------------------------------------------------------------
       Mesh    1
       Max CFL number:  0.92E+00 at (  14,   9,   7)
       Max divergence:  0.15E+02 at (  16,  11,   1)
       Min divergence: -0.30E+01 at (  14,   2,  12)
       Max VN number:   0.22E+00 at (  16,  10,  12)
       No. of Lagrangian Particles:          4392
       Total Heat Release Rate:             97.609 kW
       Radiation Loss to Boundaries:       -28.211 kW
       Mesh    2
       Max CFL number:  0.59E-01 at (  16,  48,   3)
       Max divergence:  0.36E-03 at (   1,  14,  13)
       Min divergence: -0.92E-06 at (   6,  51,   7)
       Max VN number:   0.22E-01 at (  16,  49,   1)
       Radiation Loss to Boundaries:         0.051 kW
       Mesh    3
       Max CFL number:  0.59E-01 at (  49,  14,  16)
       Max divergence:  0.26E-04 at (  49,  10,  16)
       Min divergence: -0.14E-05 at (   8,  14,  15)
       Max VN number:   0.24E-01 at (  49,   1,  16)
       Mesh    4
       Max CFL number:  0.50E-01 at (   1,  10,   1)
       Max divergence:  0.29E-04 at (   1,   1,   1)
       Min divergence: -0.31E-06 at (   8,   9,  48)
       Max VN number:   0.13E-01 at (   1,  16,   1)
       Mesh    5
       Max CFL number:  0.33E-01 at (  64,  14,   1)
       Max divergence:  0.61E-05 at (  64,  13,   2)
       Min divergence: -0.12E-05 at (   7,  10,   2)
       Max VN number:   0.69E-02 at (  64,   1,   1)
 
       Time Step      70   June 26, 2020  16:17:57
       Step Size:    0.705E-02 s, Total Time:       1.30 s
       Pressure Iterations:      1
       Maximum Velocity Error:  0.20E-01 on Mesh   4 at (   0   6  48)
       Maximum Pressure Error:  0.30E+04 on Mesh   1 at (  12   8   1)
       ---------------------------------------------------------------
       Mesh    1
       Max CFL number:  0.90E+00 at (  14,   8,  11)
       Max divergence:  0.17E+02 at (  16,  11,   1)
       Min divergence: -0.28E+01 at (  15,   9,  15)
       Max VN number:   0.22E+00 at (  16,  10,  16)
       No. of Lagrangian Particles:          4680
       Total Heat Release Rate:             87.226 kW
       Radiation Loss to Boundaries:       -23.230 kW
       Mesh    2
       Max CFL number:  0.51E-01 at (  16,  48,   3)
       Max divergence:  0.25E-03 at (   1,   3,  12)
       Min divergence: -0.81E-06 at (   7,  58,   9)
       Max VN number:   0.18E-01 at (  16,  49,   1)
       Radiation Loss to Boundaries:         0.041 kW
       Mesh    3
       Max CFL number:  0.59E-01 at (  49,  14,  16)
       Max divergence:  0.26E-04 at (  49,  10,  16)
       Min divergence: -0.16E-05 at (  24,   9,  13)
       Max VN number:   0.24E-01 at (  49,   1,  16)
       Mesh    4
       Max CFL number:  0.49E-01 at (   1,  11,  32)
       Max divergence:  0.32E-04 at (   1,   3,  32)
       Min divergence: -0.23E-06 at (   2,   9,  48)
       Max VN number:   0.19E-01 at (   1,   1,  33)
       Mesh    5
       Max CFL number:  0.42E-01 at (  64,  14,   1)
       Max divergence:  0.84E-05 at (  64,   9,   3)
       Min divergence: -0.12E-05 at (   7,  10,   2)
       Max VN number:   0.11E-01 at (  64,   1,   1)
 
       Time Step      80   June 26, 2020  16:17:57
       Step Size:    0.853E-02 s, Total Time:       1.37 s
       Pressure Iterations:      1
       Maximum Velocity Error:  0.21E-01 on Mesh   3 at (  58   8  17)
       Maximum Pressure Error:  0.21E+04 on Mesh   1 at (  14   9   9)
       ---------------------------------------------------------------
       Mesh    1
       Max CFL number:  0.82E+00 at (  15,   9,   8)
       Max divergence:  0.14E+02 at (  16,  11,   1)
       Min divergence: -0.25E+01 at (  13,  10,  10)
       Max VN number:   0.41E+00 at (  16,   8,  16)
       No. of Lagrangian Particles:          4932
       Total Heat Release Rate:             92.999 kW
       Radiation Loss to Boundaries:       -24.687 kW
       Mesh    2
       Max CFL number:  0.69E-01 at (  16,  48,  14)
       Max divergence:  0.24E-03 at (   1,   4,  12)
       Min divergence: -0.77E-06 at (   4,  53,   6)
       Max VN number:   0.24E-01 at (  16,  49,   1)
       Radiation Loss to Boundaries:         0.040 kW
       Mesh    3
       Max CFL number:  0.72E-01 at (  49,  14,  16)
       Max divergence:  0.25E-04 at (  49,  10,  16)
       Min divergence: -0.13E-05 at (  16,  14,   6)
       Max VN number:   0.27E-01 at (  49,  16,  16)
       Mesh    4
       Max CFL number:  0.80E-01 at (   1,   3,  32)
       Max divergence:  0.42E-04 at (   1,   3,  32)
       Min divergence: -0.18E-06 at (   2,   9,  48)
       Max VN number:   0.34E-01 at (   1,   1,  33)
       Mesh    5
       Max CFL number:  0.68E-01 at (  64,  14,   1)
       Max divergence:  0.11E-04 at (  64,   9,   3)
       Min divergence: -0.13E-05 at (   7,  10,   2)
       Max VN number:   0.19E-01 at (  64,   1,   1)
 
       Time Step      90   June 26, 2020  16:17:58
       Step Size:    0.726E-02 s, Total Time:       1.45 s
       Pressure Iterations:      2
       Maximum Velocity Error:  0.30E-01 on Mesh   4 at (   0   2  34)
       Maximum Pressure Error:  0.33E+04 on Mesh   1 at (  14   8  10)
       ---------------------------------------------------------------
       Mesh    1
       Max CFL number:  0.84E+00 at (  15,   8,  13)
       Max divergence:  0.15E+02 at (  14,  11,   1)
       Min divergence: -0.26E+01 at (  14,   9,  13)
       Max VN number:   0.28E+00 at (  19,   7,  16)
       No. of Lagrangian Particles:          5220
       Total Heat Release Rate:             95.454 kW
       Radiation Loss to Boundaries:       -26.373 kW
       Mesh    2
       Max CFL number:  0.61E-01 at (  16,  48,   9)
       Max divergence:  0.25E-03 at (   1,   4,   9)
       Min divergence: -0.79E-06 at (   4,  53,   6)
       Max VN number:   0.22E-01 at (  16,  49,   1)
       Radiation Loss to Boundaries:         0.039 kW
       Mesh    3
       Max CFL number:  0.67E-01 at (  49,   7,  16)
       Max divergence:  0.27E-04 at (  49,   8,  16)
       Min divergence: -0.13E-05 at (  24,   9,  13)
       Max VN number:   0.25E-01 at (  49,  16,  16)
       Mesh    4
       Max CFL number:  0.84E-01 at (   1,   3,  33)
       Max divergence:  0.53E-04 at (   1,   9,  33)
       Min divergence: -0.12E-06 at (   2,   9,  48)
       Max VN number:   0.36E-01 at (   1,   1,  33)
       Mesh    5
       Max CFL number:  0.69E-01 at (  64,  14,   1)
       Max divergence:  0.13E-04 at (  64,   9,   3)
       Min divergence: -0.13E-05 at (   7,  10,   2)
       Max VN number:   0.21E-01 at (  64,   1,   1)
 
       Time Step     100   June 26, 2020  16:17:59
       Step Size:    0.798E-02 s, Total Time:       1.53 s
       Pressure Iterations:      1
       Maximum Velocity Error:  0.21E-01 on Mesh   3 at (  64   4  17)
       Maximum Pressure Error:  0.30E+04 on Mesh   1 at (  16  10   1)
       ---------------------------------------------------------------
       Mesh    1
       Max CFL number:  0.88E+00 at (  14,   8,   9)
       Max divergence:  0.15E+02 at (  15,   6,   1)
       Min divergence: -0.22E+01 at (  14,   7,   5)
       Max VN number:   0.40E+00 at (  13,  10,  16)
       No. of Lagrangian Particles:          5472
       Total Heat Release Rate:            114.713 kW
       Radiation Loss to Boundaries:       -32.238 kW
       Mesh    2
       Max CFL number:  0.74E-01 at (  16,  49,   9)
       Max divergence:  0.24E-03 at (   1,   3,  10)
       Min divergence: -0.89E-06 at (  15,  62,  10)
       Max VN number:   0.27E-01 at (  16,  49,   1)
       Radiation Loss to Boundaries:         0.039 kW
       Mesh    3
       Max CFL number:  0.92E-01 at (  49,   5,  16)
       Max divergence:  0.36E-04 at (  49,   8,  16)
       Min divergence: -0.19E-05 at (  17,  12,  13)
       Max VN number:   0.36E-01 at (  49,  16,  16)
       Mesh    4
       Max CFL number:  0.11E+00 at (   1,  10,  33)
       Max divergence:  0.62E-04 at (   1,   3,  33)
       Min divergence: -0.43E-07 at (   2,   9,  48)
       Max VN number:   0.43E-01 at (   1,   1,  33)
       Mesh    5
       Max CFL number:  0.81E-01 at (  64,  14,   1)
       Max divergence:  0.17E-04 at (  64,  10,   2)
       Min divergence: -0.11E-05 at (   7,  10,   2)
       Max VN number:   0.26E-01 at (  64,   1,   1)
 
       Time Step     200   June 26, 2020  16:18:06
       Step Size:    0.876E-02 s, Total Time:       2.35 s
       Pressure Iterations:      1
       Maximum Velocity Error:  0.22E-01 on Mesh   4 at (   0  16  36)
       Maximum Pressure Error:  0.42E+04 on Mesh   1 at (  12   6   1)
       ---------------------------------------------------------------
       Mesh    1
       Max CFL number:  0.98E+00 at (  15,   8,   9)
       Max divergence:  0.18E+02 at (  11,  10,   1)
       Min divergence: -0.40E+01 at (  13,   7,  14)
       Max VN number:   0.32E+00 at (   7,   9,  16)
       No. of Lagrangian Particles:          8460
       Total Heat Release Rate:            160.028 kW
       Radiation Loss to Boundaries:       -47.085 kW
       Mesh    2
       Max CFL number:  0.12E+00 at (  16,  48,   9)
       Max divergence:  0.35E-03 at (   1,   3,  10)
       Min divergence: -0.26E-04 at (   2,  17,  16)
       Max VN number:   0.51E-01 at (  16,  49,   1)
       Radiation Loss to Boundaries:         0.066 kW
       Mesh    3
       Max CFL number:  0.12E+00 at (  49,  12,  16)
       Max divergence:  0.48E-04 at (  49,  10,  16)
       Min divergence: -0.47E-05 at (  45,   8,  16)
       Max VN number:   0.53E-01 at (  48,  16,  16)
       Mesh    4
       Max CFL number:  0.11E+00 at (   1,   8,  33)
       Max divergence:  0.55E-04 at (   1,   1,  33)
       Min divergence: -0.24E-04 at (   2,  11,  34)
       Max VN number:   0.51E-01 at (   1,   6,  32)
       Mesh    5
       Max CFL number:  0.98E-01 at (  64,   6,   1)
       Max divergence:  0.43E-04 at (  64,   8,   2)
       Min divergence: -0.47E-05 at (  58,  12,   2)
       Max VN number:   0.41E-01 at (  64,  16,   1)
 
       Time Step     300   June 26, 2020  16:18:14
       Step Size:    0.791E-02 s, Total Time:       3.18 s
       Pressure Iterations:      5
       Maximum Velocity Error:  0.53E-01 on Mesh   1 at (  49   2  15)
       Maximum Pressure Error:  0.16E+04 on Mesh   1 at (  13   6  14)
       ---------------------------------------------------------------
       Mesh    1
       Max CFL number:  0.88E+00 at (  13,   6,  13)
       Max divergence:  0.19E+02 at (  16,   7,   1)
       Min divergence: -0.66E+01 at (  13,   7,   1)
       Max VN number:   0.36E+00 at (  14,   7,  16)
       No. of Lagrangian Particles:          9069
       Total Heat Release Rate:            148.852 kW
       Radiation Loss to Boundaries:       -46.008 kW
       Mesh    2
       Max CFL number:  0.39E+00 at (   1,  10,  16)
       Max divergence:  0.60E+00 at (   9,  13,  14)
       Min divergence: -0.80E+00 at (   4,   1,  16)
       Max VN number:   0.13E+00 at (   1,   1,  14)
       No. of Lagrangian Particles:          2343
       Radiation Loss to Boundaries:        -0.172 kW
       Mesh    3
       Max CFL number:  0.17E+00 at (  49,  15,  16)
       Max divergence:  0.66E-04 at (  49,  14,  16)
       Min divergence: -0.39E-05 at (  43,   4,  16)
       Max VN number:   0.74E-01 at (  48,   1,  16)
       Mesh    4
       Max CFL number:  0.19E+00 at (   1,  15,  33)
       Max divergence:  0.11E-03 at (   1,  15,  33)
       Min divergence:  0.28E-10 at (   3,   9,  48)
       Max VN number:   0.80E-01 at (   1,   1,  32)
       Mesh    5
       Max CFL number:  0.15E+00 at (  64,   2,   1)
       Max divergence:  0.62E-04 at (  64,  15,   2)
       Min divergence: -0.44E-05 at (  56,  16,   2)
       Max VN number:   0.56E-01 at (  64,   1,   1)
 
       Time Step     400   June 26, 2020  16:18:23
       Step Size:    0.880E-02 s, Total Time:       4.04 s
       Pressure Iterations:      5
       Maximum Velocity Error:  0.49E-01 on Mesh   1 at (  49   5  15)
       Maximum Pressure Error:  0.34E+04 on Mesh   1 at (   9   9   1)
       ---------------------------------------------------------------
       Mesh    1
       Max CFL number:  0.84E+00 at (   9,   9,  12)
       Max divergence:  0.17E+02 at (  11,  11,   1)
       Min divergence: -0.41E+01 at (   9,   6,  10)
       Max VN number:   0.29E+00 at (   8,   8,  12)
       No. of Lagrangian Particles:         10291
       Total Heat Release Rate:            148.293 kW
       Radiation Loss to Boundaries:       -47.524 kW
       Mesh    2
       Max CFL number:  0.38E+00 at (   5,  16,  16)
       Max divergence:  0.39E+00 at (   1,  17,  16)
       Min divergence: -0.75E+00 at (   1,  16,  16)
       Max VN number:   0.13E+00 at (  14,  16,  16)
       No. of Lagrangian Particles:          4230
       Radiation Loss to Boundaries:        -0.463 kW
       Mesh    3
       Max CFL number:  0.16E+00 at (  49,   7,  16)
       Max divergence:  0.55E-04 at (  50,  12,  16)
       Min divergence: -0.46E-05 at (  45,  15,  16)
       Max VN number:   0.73E-01 at (  49,   1,  16)
       Mesh    4
       Max CFL number:  0.18E+00 at (   1,   6,  33)
       Max divergence:  0.95E-04 at (   1,  15,  33)
       Min divergence:  0.15E-06 at (   1,   9,  48)
       Max VN number:   0.79E-01 at (   1,  16,  33)
       Mesh    5
       Max CFL number:  0.14E+00 at (  64,   7,   1)
       Max divergence:  0.50E-04 at (  64,   2,   2)
       Min divergence: -0.50E-05 at (  52,   6,   2)
       Max VN number:   0.58E-01 at (  64,  16,   1)
 
       Time Step     500   June 26, 2020  16:18:34
       Step Size:    0.886E-02 s, Total Time:       4.99 s
       Pressure Iterations:      6
       Maximum Velocity Error:  0.31E-01 on Mesh   1 at (  49   8  16)
       Maximum Pressure Error:  0.23E+04 on Mesh   1 at (  15   6   1)
       ---------------------------------------------------------------
       Mesh    1
       Max CFL number:  0.93E+00 at (  10,   7,   8)
       Max divergence:  0.21E+02 at (  16,  11,   1)
       Min divergence: -0.38E+01 at (   8,   9,   9)
       Max VN number:   0.31E+00 at (  10,   5,  16)
       No. of Lagrangian Particles:         11723
       Total Heat Release Rate:            249.162 kW
       Radiation Loss to Boundaries:       -83.496 kW
       Mesh    2
       Max CFL number:  0.42E+00 at (   3,  16,  16)
       Max divergence:  0.63E+00 at (   1,  17,  13)
       Min divergence: -0.76E+00 at (   1,  16,  13)
       Max VN number:   0.15E+00 at (  16,  21,  16)
       No. of Lagrangian Particles:          5924
       Radiation Loss to Boundaries:        -1.227 kW
       Mesh    3
       Max CFL number:  0.16E+00 at (   1,   1,  16)
       Max divergence:  0.18E-01 at (   1,   1,  15)
       Min divergence: -0.66E-05 at (   1,   1,  10)
       Max VN number:   0.61E-01 at (   1,   1,  16)
       Mesh    4
       Max CFL number:  0.12E+00 at (   1,  10,  32)
       Max divergence:  0.65E-04 at (   1,   2,  32)
       Min divergence: -0.32E-05 at (   8,  16,  38)
       Max VN number:   0.45E-01 at (   1,   1,   1)
       Mesh    5
       Max CFL number:  0.10E+00 at (  64,  15,   1)
       Max divergence:  0.49E-04 at (  63,   6,   4)
       Min divergence: -0.97E-05 at (  56,  16,   4)
       Max VN number:   0.43E-01 at (  64,  16,   1)
 
       Time Step     600   June 26, 2020  16:18:44
       Step Size:    0.955E-02 s, Total Time:       5.96 s
       Pressure Iterations:      9
       Maximum Velocity Error:  0.29E-01 on Mesh   1 at (  49   3  15)
       Maximum Pressure Error:  0.33E+04 on Mesh   1 at (  14   6   1)
       ---------------------------------------------------------------
       Mesh    1
       Max CFL number:  0.94E+00 at (   5,   6,  14)
       Max divergence:  0.22E+02 at (   7,   7,   1)
       Min divergence: -0.29E+01 at (  11,  11,   3)
       Max VN number:   0.32E+00 at (   5,   6,  13)
       No. of Lagrangian Particles:         12502
       Total Heat Release Rate:            156.034 kW
       Radiation Loss to Boundaries:       -51.584 kW
       Mesh    2
       Max CFL number:  0.41E+00 at (   3,  16,  14)
       Max divergence:  0.37E+00 at (  16,  28,   9)
       Min divergence: -0.56E+00 at (   3,   1,  16)
       Max VN number:   0.13E+00 at (  16,  32,  16)
       No. of Lagrangian Particles:          8366
       Radiation Loss to Boundaries:        -2.329 kW
       Mesh    3
       Max CFL number:  0.22E+00 at (   3,   9,  16)
       Max divergence:  0.14E+00 at (   1,   2,  15)
       Min divergence: -0.71E-01 at (   1,   2,  16)
       Max VN number:   0.81E-01 at (   1,   1,  16)
       No. of Lagrangian Particles:           208
       Radiation Loss to Boundaries:        -0.005 kW
       Mesh    4
       Max CFL number:  0.13E+00 at (   1,   3,  33)
       Max divergence:  0.66E-04 at (   1,  15,  33)
       Min divergence: -0.45E-05 at (   1,   6,   7)
       Max VN number:   0.44E-01 at (   1,  16,  33)
       Mesh    5
       Max CFL number:  0.11E+00 at (  64,   3,   1)
       Max divergence:  0.44E-04 at (  64,  15,   4)
       Min divergence: -0.13E-04 at (  57,  16,   4)
       Max VN number:   0.45E-01 at (  64,  15,   1)
 
       Time Step     700   June 26, 2020  16:18:54
       Step Size:    0.896E-02 s, Total Time:       6.93 s
       Pressure Iterations:      6
       Maximum Velocity Error:  0.45E-01 on Mesh   2 at (  17  49  16)
       Maximum Pressure Error:  0.21E+04 on Mesh   1 at (  14   6   1)
       ---------------------------------------------------------------
       Mesh    1
       Max CFL number:  0.86E+00 at (   8,  10,   7)
       Max divergence:  0.41E+02 at (   9,   7,   1)
       Min divergence: -0.25E+01 at (  11,   6,   5)
       Max VN number:   0.30E+00 at (  13,   1,  16)
       No. of Lagrangian Particles:         13696
       Total Heat Release Rate:            187.327 kW
       Radiation Loss to Boundaries:       -59.645 kW
       Mesh    2
       Max CFL number:  0.39E+00 at (   2,  16,  15)
       Max divergence:  0.76E+00 at (  16,  25,   9)
       Min divergence: -0.62E+00 at (  16,  49,  16)
       Max VN number:   0.15E+00 at (  16,  49,  16)
       No. of Lagrangian Particles:         10229
       Radiation Loss to Boundaries:        -3.594 kW
       Mesh    3
       Max CFL number:  0.21E+00 at (   4,  10,  16)
       Max divergence:  0.41E+00 at (   1,   1,  15)
       Min divergence: -0.29E+00 at (   1,   2,  16)
       Max VN number:   0.10E+00 at (   1,   1,  16)
       No. of Lagrangian Particles:           534
       Radiation Loss to Boundaries:        -0.018 kW
       Mesh    4
       Max CFL number:  0.12E+00 at (   1,   3,  33)
       Max divergence:  0.72E-04 at (   1,  16,  33)
       Min divergence: -0.60E-05 at (   1,  10,   6)
       Max VN number:   0.42E-01 at (   1,   4,   1)
       Mesh    5
       Max CFL number:  0.10E+00 at (  61,   4,   4)
       Max divergence:  0.42E-04 at (  64,   9,   5)
       Min divergence: -0.12E-04 at (  56,   1,   4)
       Max VN number:   0.40E-01 at (  64,   3,   1)
 
       Time Step     800   June 26, 2020  16:19:05
       Step Size:    0.110E-01 s, Total Time:       7.86 s
       Pressure Iterations:      7
       Maximum Velocity Error:  0.27E-01 on Mesh   2 at (  17  50  16)
       Maximum Pressure Error:  0.46E+04 on Mesh   1 at (  13   7   1)
       ---------------------------------------------------------------
       Mesh    1
       Max CFL number:  0.93E+00 at (   7,  12,   8)
       Max divergence:  0.38E+02 at (   8,   9,   1)
       Min divergence: -0.37E+01 at (  12,   7,   3)
       Max VN number:   0.31E+00 at (  13,  16,  16)
       No. of Lagrangian Particles:         15091
       Total Heat Release Rate:            192.964 kW
       Radiation Loss to Boundaries:       -63.060 kW
       Mesh    2
       Max CFL number:  0.55E+00 at (  16,  49,  16)
       Max divergence:  0.11E+01 at (  16,  32,  10)
       Min divergence: -0.64E+00 at (  16,  27,   8)
       Max VN number:   0.18E+00 at (  16,  31,  10)
       No. of Lagrangian Particles:         11560
       Radiation Loss to Boundaries:        -4.197 kW
       Mesh    3
       Max CFL number:  0.35E+00 at (   1,   1,  16)
       Max divergence:  0.60E+00 at (   1,   2,  13)
       Min divergence: -0.34E+00 at (   1,   1,  15)
       Max VN number:   0.18E+00 at (   1,   1,  16)
       No. of Lagrangian Particles:           988
       Radiation Loss to Boundaries:        -0.068 kW
       Mesh    4
       Max CFL number:  0.13E+00 at (   1,   3,  33)
       Max divergence:  0.72E-04 at (   1,   9,  33)
       Min divergence: -0.12E-04 at (   1,   6,   5)
       Max VN number:   0.46E-01 at (   1,   3,   1)
       Mesh    5
       Max CFL number:  0.11E+00 at (  63,  12,   5)
       Max divergence:  0.70E-04 at (  64,   5,   3)
       Min divergence: -0.13E-04 at (  54,   1,   4)
       Max VN number:   0.35E-01 at (  64,  16,   1)
 
       Time Step     900   June 26, 2020  16:19:15
       Step Size:    0.957E-02 s, Total Time:       8.81 s
       Pressure Iterations:      8
       Maximum Velocity Error:  0.28E-01 on Mesh   1 at (  49  11  15)
       Maximum Pressure Error:  0.25E+04 on Mesh   1 at (  14  10   1)
       ---------------------------------------------------------------
       Mesh    1
       Max CFL number:  0.78E+00 at (   7,  11,  14)
       Max divergence:  0.19E+02 at (  15,   7,   1)
       Min divergence: -0.34E+01 at (  12,   9,   5)
       Max VN number:   0.30E+00 at (   5,   7,  16)
       No. of Lagrangian Particles:         15767
       Total Heat Release Rate:            120.733 kW
       Radiation Loss to Boundaries:       -41.690 kW
       Mesh    2
       Max CFL number:  0.43E+00 at (  16,  49,  16)
       Max divergence:  0.10E+01 at (  14,  26,   8)
       Min divergence: -0.72E+00 at (  16,  30,   9)
       Max VN number:   0.15E+00 at (  16,  48,  16)
       No. of Lagrangian Particles:         12771
       Radiation Loss to Boundaries:        -4.353 kW
       Mesh    3
       Max CFL number:  0.40E+00 at (   1,   5,  16)
       Max divergence:  0.30E+00 at (   4,   3,  15)
       Min divergence: -0.56E+00 at (   1,   2,  16)
       Max VN number:   0.18E+00 at (   1,   1,  16)
       No. of Lagrangian Particles:          2340
       Radiation Loss to Boundaries:        -0.285 kW
       Mesh    4
       Max CFL number:  0.88E-01 at (   1,   1,  32)
       Max divergence:  0.66E-04 at (   1,  14,  35)
       Min divergence: -0.23E-04 at (   1,  13,   4)
       Max VN number:   0.29E-01 at (   1,  16,  35)
       Mesh    5
       Max CFL number:  0.89E-01 at (  60,  10,   7)
       Max divergence:  0.45E-04 at (  64,  11,   3)
       Min divergence: -0.23E-04 at (  57,  16,   3)
       Max VN number:   0.26E-01 at (  62,  16,   5)
 
       Time Step    1000   June 26, 2020  16:19:26
       Step Size:    0.966E-02 s, Total Time:       9.80 s
       Pressure Iterations:      6
       Maximum Velocity Error:  0.29E-01 on Mesh   1 at (  49   1   1)
       Maximum Pressure Error:  0.24E+04 on Mesh   1 at (   9  11   1)
       ---------------------------------------------------------------
       Mesh    1
       Max CFL number:  0.87E+00 at (   7,   7,   7)
       Max divergence:  0.18E+02 at (   9,   6,   1)
       Min divergence: -0.34E+01 at (  11,   6,   4)
       Max VN number:   0.26E+00 at (   1,   6,  16)
       No. of Lagrangian Particles:         16723
       Total Heat Release Rate:            172.598 kW
       Radiation Loss to Boundaries:       -60.177 kW
       Mesh    2
       Max CFL number:  0.40E+00 at (   1,  16,  16)
       Max divergence:  0.41E+00 at (  16,  30,   8)
       Min divergence: -0.56E+00 at (  15,  24,   7)
       Max VN number:   0.13E+00 at (  16,  40,  11)
       No. of Lagrangian Particles:         13795
       Radiation Loss to Boundaries:        -4.966 kW
       Mesh    3
       Max CFL number:  0.28E+00 at (  23,  13,  14)
       Max divergence:  0.28E+00 at (   1,   1,  14)
       Min divergence: -0.28E+00 at (   1,   1,  16)
       Max VN number:   0.12E+00 at (  12,  16,  16)
       No. of Lagrangian Particles:          3910
       Radiation Loss to Boundaries:        -0.568 kW
       Mesh    4
       Max CFL number:  0.73E-01 at (   6,  11,   4)
       Max divergence:  0.43E-04 at (   1,   3,  31)
       Min divergence: -0.32E-04 at (   1,   3,   5)
       Max VN number:   0.22E-01 at (   5,  16,   3)
       Mesh    5
       Max CFL number:  0.78E-01 at (  60,  10,   7)
       Max divergence:  0.48E-04 at (  64,   6,   5)
       Min divergence: -0.31E-04 at (  57,  16,   4)
       Max VN number:   0.22E-01 at (  61,  16,   5)
 
       Time Step    1100   June 26, 2020  16:19:37
       Step Size:    0.110E-01 s, Total Time:      10.83 s
       Pressure Iterations:     10
       Maximum Velocity Error:  0.29E-01 on Mesh   1 at (  49   2  15)
       Maximum Pressure Error:  0.49E+04 on Mesh   1 at (   7   9   8)
       ---------------------------------------------------------------
       Mesh    1
       Max CFL number:  0.93E+00 at (   5,  11,   9)
       Max divergence:  0.20E+02 at (   9,   7,   1)
       Min divergence: -0.47E+01 at (  10,   9,   3)
       Max VN number:   0.27E+00 at (   1,   1,  14)
       No. of Lagrangian Particles:         16579
       Total Heat Release Rate:            185.505 kW
       Radiation Loss to Boundaries:       -67.477 kW
       Mesh    2
       Max CFL number:  0.47E+00 at (  16,  49,  16)
       Max divergence:  0.44E+00 at (  12,  11,   6)
       Min divergence: -0.52E+00 at (  15,  28,   6)
       Max VN number:   0.18E+00 at (  16,  48,  16)
       No. of Lagrangian Particles:         13803
       Radiation Loss to Boundaries:        -5.659 kW
       Mesh    3
       Max CFL number:  0.36E+00 at (   1,   6,  15)
       Max divergence:  0.32E+00 at (   2,   1,  15)
       Min divergence: -0.28E+00 at (  34,  16,  14)
       Max VN number:   0.17E+00 at (   1,   1,  16)
       No. of Lagrangian Particles:          4653
       Radiation Loss to Boundaries:        -0.852 kW
       Mesh    4
       Max CFL number:  0.23E+00 at (   5,  15,   1)
       Max divergence:  0.12E+00 at (   1,  14,   2)
       Min divergence: -0.12E+00 at (   1,  12,   1)
       Max VN number:   0.90E-01 at (   1,  16,   1)
       No. of Lagrangian Particles:            91
       Radiation Loss to Boundaries:        -0.008 kW
       Mesh    5
       Max CFL number:  0.94E-01 at (  60,  16,   5)
       Max divergence:  0.50E-04 at (  64,   4,   3)
       Min divergence: -0.29E-04 at (  57,   4,   3)
       Max VN number:   0.26E-01 at (  64,  16,   1)
 
       Time Step    1200   June 26, 2020  16:19:47
       Step Size:    0.103E-01 s, Total Time:      11.83 s
       Pressure Iterations:      7
       Maximum Velocity Error:  0.27E-01 on Mesh   1 at (  49  12  15)
       Maximum Pressure Error:  0.21E+04 on Mesh   1 at (  13   7   1)
       ---------------------------------------------------------------
       Mesh    1
       Max CFL number:  0.78E+00 at (   5,   7,  15)
       Max divergence:  0.20E+02 at (   5,   9,   1)
       Min divergence: -0.22E+01 at (   5,   7,   6)
       Max VN number:   0.34E+00 at (   7,  11,  16)
       No. of Lagrangian Particles:         16550
       Total Heat Release Rate:            142.801 kW
       Radiation Loss to Boundaries:       -50.605 kW
       Mesh    2
       Max CFL number:  0.44E+00 at (   3,  16,  16)
       Max divergence:  0.61E+00 at (   1,  17,  14)
       Min divergence: -0.63E+00 at (  15,  22,   7)
       Max VN number:   0.19E+00 at (  16,  49,  16)
       No. of Lagrangian Particles:         13231
       Radiation Loss to Boundaries:        -6.113 kW
       Mesh    3
       Max CFL number:  0.35E+00 at (   1,   1,  16)
       Max divergence:  0.39E+00 at (  49,  16,  15)
       Min divergence: -0.46E+00 at (  49,  16,  16)
       Max VN number:   0.14E+00 at (   1,   1,  15)
       No. of Lagrangian Particles:          4626
       Radiation Loss to Boundaries:        -1.079 kW
       Mesh    4
       Max CFL number:  0.30E+00 at (  10,  14,  12)
       Max divergence:  0.28E+00 at (  11,   6,   1)
       Min divergence: -0.20E+00 at (   6,   2,   2)
       Max VN number:   0.11E+00 at (   1,  16,   1)
       No. of Lagrangian Particles:           660
       Radiation Loss to Boundaries:        -0.061 kW
       Mesh    5
       Max CFL number:  0.79E-01 at (  59,   7,   7)
       Max divergence:  0.43E-04 at (  64,  11,   6)
       Min divergence: -0.32E-04 at (  57,   1,   7)
       Max VN number:   0.21E-01 at (  60,  16,   4)
 
       Time Step    1300   June 26, 2020  16:19:58
       Step Size:    0.101E-01 s, Total Time:      12.88 s
       Pressure Iterations:      7
       Maximum Velocity Error:  0.28E-01 on Mesh   1 at (  49   1   1)
       Maximum Pressure Error:  0.45E+04 on Mesh   1 at (  12   7   1)
       ---------------------------------------------------------------
       Mesh    1
       Max CFL number:  0.95E+00 at (   5,   6,  13)
       Max divergence:  0.48E+02 at (  10,  11,   1)
       Min divergence: -0.31E+01 at (   8,   8,   2)
       Max VN number:   0.29E+00 at (   5,   6,  14)
       No. of Lagrangian Particles:         15725
       Total Heat Release Rate:            166.433 kW
       Radiation Loss to Boundaries:       -57.718 kW
       Mesh    2
       Max CFL number:  0.39E+00 at (  16,  49,  16)
       Max divergence:  0.49E+00 at (  16,  28,   7)
       Min divergence: -0.47E+00 at (  16,  37,  10)
       Max VN number:   0.12E+00 at (  16,  21,  13)
       No. of Lagrangian Particles:         14244
       Radiation Loss to Boundaries:        -6.988 kW
       Mesh    3
       Max CFL number:  0.49E+00 at (  48,  16,  16)
       Max divergence:  0.24E+00 at (  15,  12,   9)
       Min divergence: -0.38E+00 at (  49,  11,  16)
       Max VN number:   0.19E+00 at (  49,  16,  15)
       No. of Lagrangian Particles:          4330
       Radiation Loss to Boundaries:        -1.237 kW
       Mesh    4
       Max CFL number:  0.36E+00 at (   1,  16,   1)
       Max divergence:  0.46E+00 at (   1,  12,   1)
       Min divergence: -0.30E+00 at (   2,  16,   2)
       Max VN number:   0.18E+00 at (   1,  16,   1)
       No. of Lagrangian Particles:          1025
       Radiation Loss to Boundaries:        -0.120 kW
       Mesh    5
       Max CFL number:  0.69E-01 at (  59,  16,   6)
       Max divergence:  0.45E-04 at (  62,   2,   4)
       Min divergence: -0.42E-04 at (  55,   1,   5)
       Max VN number:   0.23E-01 at (  59,  16,   6)
 
       Time Step    1400   June 26, 2020  16:20:09
       Step Size:    0.110E-01 s, Total Time:      13.94 s
       Pressure Iterations:     10
       Maximum Velocity Error:  0.40E-01 on Mesh   1 at (  49   1   1)
       Maximum Pressure Error:  0.17E+04 on Mesh   1 at (  14  10   1)
       ---------------------------------------------------------------
       Mesh    1
       Max CFL number:  0.90E+00 at (   7,  11,   6)
       Max divergence:  0.31E+02 at (  11,  11,   1)
       Min divergence: -0.38E+01 at (  10,  11,   4)
       Max VN number:   0.24E+00 at (   4,  10,  11)
       No. of Lagrangian Particles:         16164
       Total Heat Release Rate:            168.996 kW
       Radiation Loss to Boundaries:       -57.230 kW
       Mesh    2
       Max CFL number:  0.46E+00 at (  16,  49,  15)
       Max divergence:  0.64E+00 at (  15,  17,   7)
       Min divergence: -0.58E+00 at (  16,  17,   7)
       Max VN number:   0.17E+00 at (  16,  48,  16)
       No. of Lagrangian Particles:         14108
       Radiation Loss to Boundaries:        -7.441 kW
       Mesh    3
       Max CFL number:  0.35E+00 at (   1,   4,  15)
       Max divergence:  0.31E+00 at (   2,  16,   6)
       Min divergence: -0.33E+00 at (   1,   1,  16)
       Max VN number:   0.17E+00 at (   1,   1,  16)
       No. of Lagrangian Particles:          4232
       Radiation Loss to Boundaries:        -1.506 kW
       Mesh    4
       Max CFL number:  0.33E+00 at (  10,  15,  20)
       Max divergence:  0.39E+00 at (   4,  11,   2)
       Min divergence: -0.26E+00 at (   1,  12,   1)
       Max VN number:   0.13E+00 at (  16,  16,  10)
       No. of Lagrangian Particles:           904
       Radiation Loss to Boundaries:        -0.159 kW
       Mesh    5
       Max CFL number:  0.22E+00 at (  64,  13,   8)
       Max divergence:  0.16E-01 at (  64,  12,   3)
       Min divergence: -0.36E-01 at (  64,  13,   8)
       Max VN number:   0.77E-01 at (  64,  13,   7)
       No. of Lagrangian Particles:             6
 
       Time Step    1500   June 26, 2020  16:20:19
       Step Size:    0.114E-01 s, Total Time:      14.99 s
       Pressure Iterations:      9
       Maximum Velocity Error:  0.29E-01 on Mesh   1 at (  49   1   1)
       Maximum Pressure Error:  0.21E+04 on Mesh   1 at (  13  10   1)
       ---------------------------------------------------------------
       Mesh    1
       Max CFL number:  0.85E+00 at (   6,   9,  10)
       Max divergence:  0.16E+02 at (   5,   8,   4)
       Min divergence: -0.42E+01 at (   6,  10,   6)
       Max VN number:   0.33E+00 at (   7,  11,   8)
       No. of Lagrangian Particles:         16820
       Total Heat Release Rate:            153.511 kW
       Radiation Loss to Boundaries:       -58.084 kW
       Mesh    2
       Max CFL number:  0.45E+00 at (   4,  16,  16)
       Max divergence:  0.53E+00 at (  16,   8,   4)
       Min divergence: -0.69E+00 at (  15,  22,   8)
       Max VN number:   0.17E+00 at (  16,  25,  16)
       No. of Lagrangian Particles:         13800
       Radiation Loss to Boundaries:        -7.855 kW
       Mesh    3
       Max CFL number:  0.43E+00 at (  49,  15,  16)
       Max divergence:  0.44E+00 at (  50,   1,  15)
       Min divergence: -0.35E+00 at (  13,  16,   7)
       Max VN number:   0.18E+00 at (  49,  15,  16)
       No. of Lagrangian Particles:          4170
       Radiation Loss to Boundaries:        -1.843 kW
       Mesh    4
       Max CFL number:  0.35E+00 at (  14,  12,  15)
       Max divergence:  0.39E+00 at (   1,   9,   1)
       Min divergence: -0.27E+00 at (   2,  16,   1)
       Max VN number:   0.18E+00 at (   1,  16,   1)
       No. of Lagrangian Particles:           756
       Radiation Loss to Boundaries:        -0.249 kW
       Mesh    5
       Max CFL number:  0.20E+00 at (  64,  12,  11)
       Max divergence:  0.14E-01 at (  62,  12,  12)
       Min divergence: -0.19E-01 at (  62,  12,   7)
       Max VN number:   0.11E+00 at (  63,   9,  16)
       No. of Lagrangian Particles:            40
       Radiation Loss to Boundaries:        -0.003 kW
 
       Time Step    1600   June 26, 2020  16:20:30
       Step Size:    0.109E-01 s, Total Time:      16.08 s
       Pressure Iterations:      7
       Maximum Velocity Error:  0.31E-01 on Mesh   1 at (  49   2   1)
       Maximum Pressure Error:  0.24E+04 on Mesh   1 at (  13   9   1)
       ---------------------------------------------------------------
       Mesh    1
       Max CFL number:  0.91E+00 at (   6,  10,   7)
       Max divergence:  0.22E+02 at (   4,   7,   1)
       Min divergence: -0.31E+01 at (   5,  10,  12)
       Max VN number:   0.26E+00 at (   9,   1,  16)
       No. of Lagrangian Particles:         17584
       Total Heat Release Rate:            166.508 kW
       Radiation Loss to Boundaries:       -59.644 kW
       Mesh    2
       Max CFL number:  0.43E+00 at (  16,  49,  15)
       Max divergence:  0.62E+00 at (  15,  25,   7)
       Min divergence: -0.53E+00 at (  15,  13,   7)
       Max VN number:   0.15E+00 at (  16,  48,  16)
       No. of Lagrangian Particles:         13151
       Radiation Loss to Boundaries:        -8.040 kW
       Mesh    3
       Max CFL number:  0.39E+00 at (  49,  15,  16)
       Max divergence:  0.41E+00 at (  16,  15,   8)
       Min divergence: -0.51E+00 at (  49,  12,  16)
       Max VN number:   0.18E+00 at (  48,  16,  16)
       No. of Lagrangian Particles:          4370
       Radiation Loss to Boundaries:        -2.160 kW
       Mesh    4
       Max CFL number:  0.43E+00 at (  15,   8,  26)
       Max divergence:  0.37E+00 at (   7,  12,   6)
       Min divergence: -0.33E+00 at (  11,   5,   2)
       Max VN number:   0.14E+00 at (  16,   6,  29)
       No. of Lagrangian Particles:           505
       Radiation Loss to Boundaries:        -0.329 kW
       Mesh    5
       Max CFL number:  0.20E+00 at (  52,  15,  14)
       Max divergence:  0.97E-02 at (  64,  12,   5)
       Min divergence: -0.11E-01 at (  64,  11,  10)
       Max VN number:   0.84E-01 at (  59,   1,  16)
       No. of Lagrangian Particles:             1
       Radiation Loss to Boundaries:        -0.004 kW
 
       Time Step    1700   June 26, 2020  16:20:40
       Step Size:    0.109E-01 s, Total Time:      17.13 s
       Pressure Iterations:      7
       Maximum Velocity Error:  0.24E-01 on Mesh   1 at (  49   2  14)
       Maximum Pressure Error:  0.28E+04 on Mesh   1 at (  12  12   1)
       ---------------------------------------------------------------
       Mesh    1
       Max CFL number:  0.89E+00 at (   3,  11,  14)
       Max divergence:  0.24E+02 at (   6,   8,   1)
       Min divergence: -0.28E+01 at (   6,  12,   8)
       Max VN number:   0.35E+00 at (   8,  16,  16)
       No. of Lagrangian Particles:         17543
       Total Heat Release Rate:            161.292 kW
       Radiation Loss to Boundaries:       -58.642 kW
       Mesh    2
       Max CFL number:  0.47E+00 at (  16,  49,  16)
       Max divergence:  0.49E+00 at (  16,  26,   8)
       Min divergence: -0.48E+00 at (  15,  10,   6)
       Max VN number:   0.17E+00 at (  16,  48,  16)
       No. of Lagrangian Particles:         13063
       Radiation Loss to Boundaries:        -8.087 kW
       Mesh    3
       Max CFL number:  0.43E+00 at (  48,  12,  16)
       Max divergence:  0.46E+00 at (   2,   1,  15)
       Min divergence: -0.38E+00 at (   1,   1,  16)
       Max VN number:   0.18E+00 at (   1,   1,  16)
       No. of Lagrangian Particles:          4301
       Radiation Loss to Boundaries:        -2.399 kW
       Mesh    4
       Max CFL number:  0.38E+00 at (  15,   7,  33)
       Max divergence:  0.83E+00 at (   1,   9,   1)
       Min divergence: -0.48E+00 at (   2,  15,  11)
       Max VN number:   0.18E+00 at (   1,   9,   1)
       No. of Lagrangian Particles:           673
       Radiation Loss to Boundaries:        -0.401 kW
       Mesh    5
       Max CFL number:  0.21E+00 at (  62,  16,  16)
       Max divergence:  0.19E-01 at (  62,   8,  11)
       Min divergence: -0.30E-01 at (  64,   8,   9)
       Max VN number:   0.78E-01 at (  63,  16,  16)
       Radiation Loss to Boundaries:        -0.007 kW
 
       Time Step    1800   June 26, 2020  16:20:51
       Step Size:    0.126E-01 s, Total Time:      18.26 s
       Pressure Iterations:      9
       Maximum Velocity Error:  0.29E-01 on Mesh   1 at (  49  11  16)
       Maximum Pressure Error:  0.18E+04 on Mesh   1 at (   1   9   6)
       ---------------------------------------------------------------
       Mesh    1
       Max CFL number:  0.84E+00 at (   4,   8,   6)
       Max divergence:  0.19E+02 at (   4,   7,   1)
       Min divergence: -0.39E+01 at (   2,   9,   7)
       Max VN number:   0.32E+00 at (  10,   1,  16)
       No. of Lagrangian Particles:         16820
       Total Heat Release Rate:            133.570 kW
       Radiation Loss to Boundaries:       -52.501 kW
       Mesh    2
       Max CFL number:  0.59E+00 at (  16,  48,  16)
       Max divergence:  0.47E+00 at (   1,  17,  13)
       Min divergence: -0.58E+00 at (  15,   6,   6)
       Max VN number:   0.23E+00 at (  15,  49,  16)
       No. of Lagrangian Particles:         14007
       Radiation Loss to Boundaries:        -8.361 kW
       Mesh    3
       Max CFL number:  0.39E+00 at (   1,   1,  16)
       Max divergence:  0.27E+00 at (  51,  10,  16)
       Min divergence: -0.37E+00 at (   7,  15,   7)
       Max VN number:   0.21E+00 at (   1,   1,  16)
       No. of Lagrangian Particles:          4119
       Radiation Loss to Boundaries:        -2.662 kW
       Mesh    4
       Max CFL number:  0.43E+00 at (  10,   2,   3)
       Max divergence:  0.65E+00 at (   9,   1,   2)
       Min divergence: -0.49E+00 at (   9,   2,   2)
       Max VN number:   0.18E+00 at (   8,   1,  39)
       No. of Lagrangian Particles:           679
       Radiation Loss to Boundaries:        -0.457 kW
       Mesh    5
       Max CFL number:  0.26E+00 at (  55,   1,  14)
       Max divergence:  0.37E-01 at (  63,  16,   8)
       Min divergence: -0.34E-01 at (  64,  16,   9)
       Max VN number:   0.11E+00 at (  56,   1,  16)
       Radiation Loss to Boundaries:        -0.019 kW
 
       Time Step    1900   June 26, 2020  16:21:01
       Step Size:    0.102E-01 s, Total Time:      19.33 s
       Pressure Iterations:      7
       Maximum Velocity Error:  0.29E-01 on Mesh   1 at (  49   2  14)
       Maximum Pressure Error:  0.25E+04 on Mesh   1 at (  13   8   1)
       ---------------------------------------------------------------
       Mesh    1
       Max CFL number:  0.76E+00 at (   5,   5,  15)
       Max divergence:  0.15E+02 at (  10,  11,   1)
       Min divergence: -0.24E+01 at (   9,  10,   1)
       Max VN number:   0.35E+00 at (   7,   4,  16)
       No. of Lagrangian Particles:         16301
       Total Heat Release Rate:            154.043 kW
       Radiation Loss to Boundaries:       -62.759 kW
       Mesh    2
       Max CFL number:  0.41E+00 at (  16,  48,  15)
       Max divergence:  0.39E+00 at (  11,  14,   7)
       Min divergence: -0.41E+00 at (  15,   3,   6)
       Max VN number:   0.20E+00 at (  16,  49,  16)
       No. of Lagrangian Particles:         14343
       Radiation Loss to Boundaries:        -8.506 kW
       Mesh    3
       Max CFL number:  0.36E+00 at (   1,   1,  16)
       Max divergence:  0.29E+00 at (   3,   2,  14)
       Min divergence: -0.44E+00 at (  49,   3,  16)
       Max VN number:   0.14E+00 at (   1,   1,  16)
       No. of Lagrangian Particles:          4416
       Radiation Loss to Boundaries:        -2.907 kW
       Mesh    4
       Max CFL number:  0.31E+00 at (   5,  15,   5)
       Max divergence:  0.56E+00 at (   5,   1,   6)
       Min divergence: -0.42E+00 at (   8,   2,   6)
       Max VN number:   0.17E+00 at (   7,   1,   6)
       No. of Lagrangian Particles:           628
       Radiation Loss to Boundaries:        -0.505 kW
       Mesh    5
       Max CFL number:  0.27E+00 at (  63,  10,  15)
       Max divergence:  0.32E-01 at (  62,   6,   9)
       Min divergence: -0.50E-01 at (  64,  10,   1)
       Max VN number:   0.89E-01 at (  64,   6,  16)
       No. of Lagrangian Particles:             2
       Radiation Loss to Boundaries:        -0.048 kW
 
       Time Step    2000   June 26, 2020  16:21:12
       Step Size:    0.101E-01 s, Total Time:      20.41 s
       Pressure Iterations:      6
       Maximum Velocity Error:  0.29E-01 on Mesh   1 at (  49   4  14)
       Maximum Pressure Error:  0.43E+04 on Mesh   1 at (  13  11   1)
       ---------------------------------------------------------------
       Mesh    1
       Max CFL number:  0.88E+00 at (   6,  13,  13)
       Max divergence:  0.32E+02 at (  10,  12,   2)
       Min divergence: -0.47E+01 at (  14,   8,   1)
       Max VN number:   0.26E+00 at (   9,   9,  16)
       No. of Lagrangian Particles:         15726
       Total Heat Release Rate:            150.485 kW
       Radiation Loss to Boundaries:       -58.497 kW
       Mesh    2
       Max CFL number:  0.36E+00 at (   4,  16,  15)
       Max divergence:  0.59E+00 at (   1,  17,  11)
       Min divergence: -0.58E+00 at (  15,  32,   8)
       Max VN number:   0.15E+00 at (  16,  48,  16)
       No. of Lagrangian Particles:         15333
       Radiation Loss to Boundaries:        -9.107 kW
       Mesh    3
       Max CFL number:  0.49E+00 at (  48,  15,  16)
       Max divergence:  0.30E+00 at (  49,   1,  16)
       Min divergence: -0.31E+00 at (  53,   2,  10)
       Max VN number:   0.20E+00 at (  48,  14,  16)
       No. of Lagrangian Particles:          4106
       Radiation Loss to Boundaries:        -2.973 kW
       Mesh    4
       Max CFL number:  0.39E+00 at (   1,  15,   1)
[...]
       Min divergence: -0.44E+00 at (  16,  21,   4)
       Max VN number:   0.18E+00 at (   4,  15,  15)
       No. of Lagrangian Particles:         15207
       Total Heat Release Rate:              0.013 kW
       Radiation Loss to Boundaries:       -13.921 kW
       Mesh    3
       Max CFL number:  0.31E+00 at (   1,   1,  16)
       Max divergence:  0.42E+00 at (  51,   8,  14)
       Min divergence: -0.27E+00 at (  51,   7,  16)
       Max VN number:   0.12E+00 at (  57,   1,   1)
       No. of Lagrangian Particles:          3535
       Radiation Loss to Boundaries:        -4.882 kW
       Mesh    4
       Max CFL number:  0.40E+00 at (  14,  13,  41)
       Max divergence:  0.36E+00 at (  10,   7,  21)
       Min divergence: -0.34E+00 at (   2,   7,   1)
       Max VN number:   0.15E+00 at (  12,  16,  41)
       No. of Lagrangian Particles:           109
       Radiation Loss to Boundaries:        -0.983 kW
       Mesh    5
       Max CFL number:  0.31E+00 at (  46,  16,  13)
       Max divergence:  0.16E+00 at (  63,   3,   1)
       Min divergence: -0.13E+00 at (  63,   2,   1)
       Max VN number:   0.10E+00 at (  55,  16,  16)
       Radiation Loss to Boundaries:        -0.460 kW
 
       Time Step    4700   June 26, 2020  16:25:49
       Step Size:    0.114E-01 s, Total Time:      51.19 s
       Pressure Iterations:      5
       Maximum Velocity Error:  0.28E-01 on Mesh   1 at (  49   1   7)
       Maximum Pressure Error:  0.32E+04 on Mesh   1 at (   9   6   1)
       ---------------------------------------------------------------
       Mesh    1
       Max CFL number:  0.86E+00 at (   3,  10,  11)
       Max divergence:  0.19E+02 at (   6,   7,   1)
       Min divergence: -0.34E+01 at (   5,   8,   3)
       Max VN number:   0.24E+00 at (   2,   5,  14)
       No. of Lagrangian Particles:         16212
       Total Heat Release Rate:            140.722 kW
       Radiation Loss to Boundaries:       -64.008 kW
       Mesh    2
       Max CFL number:  0.44E+00 at (  16,  48,  15)
       Max divergence:  0.56E+00 at (  16,   9,   5)
       Min divergence: -0.56E+00 at (  15,   7,   5)
       Max VN number:   0.21E+00 at (  16,  49,  16)
       No. of Lagrangian Particles:         14925
       Total Heat Release Rate:              0.007 kW
       Radiation Loss to Boundaries:       -14.061 kW
       Mesh    3
       Max CFL number:  0.34E+00 at (   1,   1,  16)
       Max divergence:  0.28E+00 at (  62,   1,   8)
       Min divergence: -0.29E+00 at (  49,   4,  16)
       Max VN number:   0.14E+00 at (   1,   1,  15)
       No. of Lagrangian Particles:          3730
       Radiation Loss to Boundaries:        -4.939 kW
       Mesh    4
       Max CFL number:  0.37E+00 at (  14,  14,  41)
       Max divergence:  0.35E+00 at (   1,  12,   1)
       Min divergence: -0.24E+00 at (  14,   8,  23)
       Max VN number:   0.21E+00 at (  16,  16,  43)
       No. of Lagrangian Particles:           106
       Radiation Loss to Boundaries:        -0.894 kW
       Mesh    5
       Max CFL number:  0.33E+00 at (  64,   5,  16)
       Max divergence:  0.90E-01 at (  60,   5,  11)
       Min divergence: -0.16E+00 at (  42,   4,   5)
       Max VN number:   0.12E+00 at (  62,  16,  16)
       Radiation Loss to Boundaries:        -0.478 kW
 
       Time Step    4800   June 26, 2020  16:26:00
       Step Size:    0.119E-01 s, Total Time:      52.42 s
       Pressure Iterations:      6
       Maximum Velocity Error:  0.26E-01 on Mesh   1 at (  49   3   9)
       Maximum Pressure Error:  0.33E+04 on Mesh   1 at (   1   6  12)
       ---------------------------------------------------------------
       Mesh    1
       Max CFL number:  0.90E+00 at (   4,   7,  11)
       Max divergence:  0.13E+02 at (   7,   6,   1)
       Min divergence: -0.28E+01 at (   2,   6,  10)
       Max VN number:   0.41E+00 at (   2,   8,  15)
       No. of Lagrangian Particles:         16234
       Total Heat Release Rate:            171.937 kW
       Radiation Loss to Boundaries:       -76.831 kW
       Mesh    2
       Max CFL number:  0.43E+00 at (   6,   2,  15)
       Max divergence:  0.39E+00 at (  16,  10,  13)
       Min divergence: -0.44E+00 at (  15,  14,   4)
       Max VN number:   0.15E+00 at (   5,   1,  16)
       No. of Lagrangian Particles:         15177
       Total Heat Release Rate:              0.003 kW
       Radiation Loss to Boundaries:       -13.267 kW
       Mesh    3
       Max CFL number:  0.28E+00 at (  58,   3,  10)
       Max divergence:  0.43E+00 at (  59,   1,   6)
       Min divergence: -0.24E+00 at (  54,   1,   9)
       Max VN number:   0.12E+00 at (  64,   4,   6)
       No. of Lagrangian Particles:          3383
       Radiation Loss to Boundaries:        -4.860 kW
       Mesh    4
       Max CFL number:  0.33E+00 at (  14,   5,  16)
       Max divergence:  0.24E+00 at (  15,   9,  25)
       Min divergence: -0.24E+00 at (   4,   9,   2)
       Max VN number:   0.14E+00 at (  16,   6,  27)
       No. of Lagrangian Particles:           162
       Radiation Loss to Boundaries:        -0.884 kW
       Mesh    5
       Max CFL number:  0.25E+00 at (  63,   2,  10)
       Max divergence:  0.64E-01 at (  33,  15,  15)
       Min divergence: -0.10E+00 at (  36,  15,   5)
       Max VN number:   0.12E+00 at (  45,   1,  16)
       Radiation Loss to Boundaries:        -0.487 kW
 
       Time Step    4900   June 26, 2020  16:26:10
       Step Size:    0.115E-01 s, Total Time:      53.54 s
       Pressure Iterations:      5
       Maximum Velocity Error:  0.28E-01 on Mesh   3 at (  49   6  17)
       Maximum Pressure Error:  0.20E+04 on Mesh   1 at (   4   6  16)
       ---------------------------------------------------------------
       Mesh    1
       Max CFL number:  0.91E+00 at (  10,   9,  16)
       Max divergence:  0.15E+02 at (  10,   6,   1)
       Min divergence: -0.52E+01 at (  11,   7,   4)
       Max VN number:   0.31E+00 at (   3,   6,  13)
       No. of Lagrangian Particles:         15565
       Total Heat Release Rate:            182.703 kW
       Radiation Loss to Boundaries:       -75.849 kW
       Mesh    2
       Max CFL number:  0.48E+00 at (   5,  16,  16)
       Max divergence:  0.57E+00 at (   1,  17,  14)
       Min divergence: -0.43E+00 at (  13,   2,   4)
       Max VN number:   0.16E+00 at (  13,  19,  16)
       No. of Lagrangian Particles:         16016
       Total Heat Release Rate:              0.011 kW
       Radiation Loss to Boundaries:       -13.868 kW
       Mesh    3
       Max CFL number:  0.33E+00 at (   1,   1,  16)
       Max divergence:  0.69E+00 at (  50,  16,  15)
       Min divergence: -0.29E+00 at (  15,  15,   8)
       Max VN number:   0.14E+00 at (   1,   1,  16)
       No. of Lagrangian Particles:          3044
       Radiation Loss to Boundaries:        -4.821 kW
       Mesh    4
       Max CFL number:  0.40E+00 at (  16,   2,  31)
       Max divergence:  0.35E+00 at (   1,  15,   1)
       Min divergence: -0.28E+00 at (   2,  13,   2)
       Max VN number:   0.16E+00 at (  16,   5,  26)
       No. of Lagrangian Particles:           303
       Radiation Loss to Boundaries:        -0.993 kW
       Mesh    5
       Max CFL number:  0.22E+00 at (  64,  14,   1)
       Max divergence:  0.69E-01 at (  64,   4,   3)
       Min divergence: -0.48E-01 at (  26,  11,  16)
       Max VN number:   0.79E-01 at (  58,   2,   4)
       Radiation Loss to Boundaries:        -0.475 kW
 
       Time Step    5000   June 26, 2020  16:26:20
       Step Size:    0.947E-02 s, Total Time:      54.65 s
       Pressure Iterations:      5
       Maximum Velocity Error:  0.31E-01 on Mesh   1 at (  49   6  15)
       Maximum Pressure Error:  0.30E+04 on Mesh   1 at (   8   7   3)
       ---------------------------------------------------------------
       Mesh    1
       Max CFL number:  0.80E+00 at (   6,   9,  12)
       Max divergence:  0.17E+02 at (   9,  11,   1)
       Min divergence: -0.39E+01 at (  10,   9,   2)
       Max VN number:   0.22E+00 at (   5,  11,   9)
       No. of Lagrangian Particles:         15966
       Total Heat Release Rate:            146.003 kW
       Radiation Loss to Boundaries:       -67.034 kW
       Mesh    2
       Max CFL number:  0.32E+00 at (  16,  49,  14)
       Max divergence:  0.73E+00 at (   1,  17,  12)
       Min divergence: -0.66E+00 at (   1,  16,  11)
       Max VN number:   0.15E+00 at (   1,  15,  11)
       No. of Lagrangian Particles:         15615
       Radiation Loss to Boundaries:       -13.682 kW
       Mesh    3
       Max CFL number:  0.26E+00 at (  57,  13,  15)
       Max divergence:  0.26E+00 at (  55,   1,   8)
       Min divergence: -0.28E+00 at (  30,  15,  11)
       Max VN number:   0.96E-01 at (  64,  11,  13)
       No. of Lagrangian Particles:          2924
       Radiation Loss to Boundaries:        -4.867 kW
       Mesh    4
       Max CFL number:  0.37E+00 at (  15,  13,  23)
       Max divergence:  0.51E+00 at (  13,  16,  26)
       Min divergence: -0.40E+00 at (   2,   7,   1)
       Max VN number:   0.16E+00 at (  13,  16,  25)
       No. of Lagrangian Particles:           281
       Radiation Loss to Boundaries:        -1.012 kW
       Mesh    5
       Max CFL number:  0.22E+00 at (  64,   2,  16)
       Max divergence:  0.13E+00 at (  62,   1,  13)
       Min divergence: -0.11E+00 at (  64,   1,   2)
       Max VN number:   0.84E-01 at (  64,   1,  16)
       No. of Lagrangian Particles:            15
       Radiation Loss to Boundaries:        -0.451 kW
 
       Time Step    5100   June 26, 2020  16:26:30
       Step Size:    0.122E-01 s, Total Time:      55.86 s
       Pressure Iterations:      5
       Maximum Velocity Error:  0.25E-01 on Mesh   1 at (  49   2   7)
       Maximum Pressure Error:  0.24E+04 on Mesh   1 at (   5   7   1)
       ---------------------------------------------------------------
       Mesh    1
       Max CFL number:  0.88E+00 at (   2,   8,  12)
       Max divergence:  0.22E+02 at (   6,   8,   1)
       Min divergence: -0.31E+01 at (   8,   9,   3)
       Max VN number:   0.29E+00 at (   2,   8,  11)
       No. of Lagrangian Particles:         16524
       Total Heat Release Rate:            158.839 kW
       Radiation Loss to Boundaries:       -71.080 kW
       Mesh    2
       Max CFL number:  0.47E+00 at (   5,  16,  16)
       Max divergence:  0.45E+00 at (   1,  17,  14)
       Min divergence: -0.53E+00 at (  16,   3,   1)
       Max VN number:   0.18E+00 at (   5,  15,  12)
       No. of Lagrangian Particles:         15424
       Total Heat Release Rate:              0.002 kW
       Radiation Loss to Boundaries:       -13.705 kW
       Mesh    3
       Max CFL number:  0.36E+00 at (  58,  10,  12)
       Max divergence:  0.52E+00 at (  50,   3,  16)
       Min divergence: -0.39E+00 at (  52,   9,  15)
       Max VN number:   0.16E+00 at (  64,  12,  10)
       No. of Lagrangian Particles:          2780
       Radiation Loss to Boundaries:        -4.778 kW
       Mesh    4
       Max CFL number:  0.55E+00 at (  12,  14,  35)
       Max divergence:  0.37E+00 at (   1,   4,   1)
       Min divergence: -0.33E+00 at (   2,   5,   1)
       Max VN number:   0.22E+00 at (   8,   7,  48)
       No. of Lagrangian Particles:            76
       Radiation Loss to Boundaries:        -0.985 kW
       Mesh    5
       Max CFL number:  0.30E+00 at (  48,   5,  16)
       Max divergence:  0.86E-01 at (  63,   1,  16)
       Min divergence: -0.77E-01 at (  46,   4,  16)
       Max VN number:   0.10E+00 at (  58,  16,  16)
       Radiation Loss to Boundaries:        -0.436 kW
 
       Time Step    5200   June 26, 2020  16:26:40
       Step Size:    0.119E-01 s, Total Time:      57.05 s
       Pressure Iterations:      5
       Maximum Velocity Error:  0.24E-01 on Mesh   1 at (  49   3  11)
       Maximum Pressure Error:  0.44E+04 on Mesh   1 at (  13   6   1)
       ---------------------------------------------------------------
       Mesh    1
       Max CFL number:  0.80E+00 at (   3,   4,  12)
       Max divergence:  0.15E+02 at (   7,   7,   1)
       Min divergence: -0.33E+01 at (   6,  10,   2)
       Max VN number:   0.37E+00 at (   5,   4,  16)
       No. of Lagrangian Particles:         17294
       Total Heat Release Rate:            143.788 kW
       Radiation Loss to Boundaries:       -66.959 kW
       Mesh    2
       Max CFL number:  0.44E+00 at (   1,   3,  12)
       Max divergence:  0.42E+00 at (   1,  17,  13)
       Min divergence: -0.40E+00 at (  16,  17,   5)
       Max VN number:   0.15E+00 at (  15,  50,  14)
       No. of Lagrangian Particles:         14493
       Radiation Loss to Boundaries:       -13.952 kW
       Mesh    3
       Max CFL number:  0.35E+00 at (  50,  16,   2)
       Max divergence:  0.55E+00 at (   3,  16,   6)
       Min divergence: -0.59E+00 at (   3,  15,   6)
       Max VN number:   0.16E+00 at (  53,  16,   1)
       No. of Lagrangian Particles:          3122
       Radiation Loss to Boundaries:        -4.742 kW
       Mesh    4
       Max CFL number:  0.51E+00 at (  15,   6,  38)
       Max divergence:  0.39E+00 at (   1,  16,   1)
       Min divergence: -0.38E+00 at (   3,   4,   5)
       Max VN number:   0.24E+00 at (  16,   2,  37)
       No. of Lagrangian Particles:            97
       Radiation Loss to Boundaries:        -0.925 kW
       Mesh    5
       Max CFL number:  0.33E+00 at (  64,   2,   1)
       Max divergence:  0.10E+00 at (  62,   1,   8)
       Min divergence: -0.11E+00 at (  56,   1,  15)
       Max VN number:   0.13E+00 at (  60,   1,  16)
       No. of Lagrangian Particles:             3
       Radiation Loss to Boundaries:        -0.474 kW
 
       Time Step    5300   June 26, 2020  16:26:50
       Step Size:    0.128E-01 s, Total Time:      58.27 s
       Pressure Iterations:      5
       Maximum Velocity Error:  0.24E-01 on Mesh   1 at (  49  10  14)
       Maximum Pressure Error:  0.46E+04 on Mesh   1 at (   1   9  16)
       ---------------------------------------------------------------
       Mesh    1
       Max CFL number:  0.84E+00 at (   2,   9,  13)
       Max divergence:  0.23E+02 at (   7,  10,   1)
       Min divergence: -0.41E+01 at (  14,   9,   1)
       Max VN number:   0.35E+00 at (   1,   8,   9)
       No. of Lagrangian Particles:         18089
       Total Heat Release Rate:            149.309 kW
       Radiation Loss to Boundaries:       -68.039 kW
       Mesh    2
       Max CFL number:  0.44E+00 at (   2,  16,  14)
       Max divergence:  0.45E+00 at (   1,  17,  12)
       Min divergence: -0.48E+00 at (  14,   2,   5)
       Max VN number:   0.19E+00 at (  16,  49,  13)
       No. of Lagrangian Particles:         13677
       Radiation Loss to Boundaries:       -13.676 kW
       Mesh    3
       Max CFL number:  0.34E+00 at (   1,   1,  16)
       Max divergence:  0.61E+00 at (  52,  16,  16)
       Min divergence: -0.35E+00 at (  52,  15,  16)
       Max VN number:   0.15E+00 at (  57,   3,  16)
       No. of Lagrangian Particles:          3251
       Radiation Loss to Boundaries:        -4.762 kW
       Mesh    4
       Max CFL number:  0.48E+00 at (  14,  10,  31)
       Max divergence:  0.48E+00 at (   1,  12,   2)
       Min divergence: -0.35E+00 at (   2,  15,   1)
       Max VN number:   0.22E+00 at (  12,   8,  16)
       No. of Lagrangian Particles:           152
       Radiation Loss to Boundaries:        -0.813 kW
       Mesh    5
       Max CFL number:  0.32E+00 at (  62,  11,  16)
       Max divergence:  0.91E-01 at (  42,  16,  11)
       Min divergence: -0.95E-01 at (  56,   2,   5)
       Max VN number:   0.12E+00 at (  64,   1,  16)
       Radiation Loss to Boundaries:        -0.535 kW
 
       Time Step    5400   June 26, 2020  16:27:00
       Step Size:    0.115E-01 s, Total Time:      59.45 s
       Pressure Iterations:      5
       Maximum Velocity Error:  0.17E-01 on Mesh   1 at (  49  15  10)
       Maximum Pressure Error:  0.43E+04 on Mesh   1 at (   1   8  16)
       ---------------------------------------------------------------
       Mesh    1
       Max CFL number:  0.95E+00 at (   3,   8,  12)
       Max divergence:  0.17E+02 at (   8,  10,   1)
       Min divergence: -0.29E+01 at (   5,   6,   5)
       Max VN number:   0.25E+00 at (   8,   1,  16)
       No. of Lagrangian Particles:         17130
       Total Heat Release Rate:            163.466 kW
       Radiation Loss to Boundaries:       -70.664 kW
       Mesh    2
       Max CFL number:  0.54E+00 at (   2,   2,   9)
       Max divergence:  0.75E+00 at (  14,   8,  16)
       Min divergence: -0.50E+00 at (  16,  28,   7)
       Max VN number:   0.18E+00 at (   2,  15,  14)
       No. of Lagrangian Particles:         14912
       Radiation Loss to Boundaries:       -14.877 kW
       Mesh    3
       Max CFL number:  0.34E+00 at (  58,   1,  10)
       Max divergence:  0.31E+00 at (  54,  16,  15)
       Min divergence: -0.27E+00 at (  57,  16,  15)
       Max VN number:   0.11E+00 at (  58,  16,  16)
       No. of Lagrangian Particles:          3018
       Radiation Loss to Boundaries:        -4.872 kW
       Mesh    4
       Max CFL number:  0.37E+00 at (  14,   2,  34)
       Max divergence:  0.33E+00 at (   2,   8,   2)
       Min divergence: -0.34E+00 at (   2,   8,   1)
       Max VN number:   0.18E+00 at (  13,   8,  48)
       No. of Lagrangian Particles:           234
       Radiation Loss to Boundaries:        -0.839 kW
       Mesh    5
       Max CFL number:  0.27E+00 at (  54,  13,  16)
       Max divergence:  0.14E+00 at (  62,   3,   1)
       Min divergence: -0.13E+00 at (  62,   3,   2)
       Max VN number:   0.11E+00 at (  63,  16,  16)
       Radiation Loss to Boundaries:        -0.549 kW
 
       Time Step    5446   June 26, 2020  16:27:04
       Step Size:    0.300E-02 s, Total Time:      60.00 s
       Pressure Iterations:      3
       Maximum Velocity Error:  0.27E-01 on Mesh   1 at (  49   6   8)
       Maximum Pressure Error:  0.49E+04 on Mesh   1 at (  15  12   1)
       ---------------------------------------------------------------
       Mesh    1
       Max CFL number:  0.19E+00 at (   2,   8,   8)
       Max divergence:  0.21E+02 at (   7,   9,   1)
       Min divergence: -0.32E+01 at (  15,   7,   1)
       Max VN number:   0.70E-01 at (   7,   1,  16)
       No. of Lagrangian Particles:         16918
       Total Heat Release Rate:            154.415 kW
       Radiation Loss to Boundaries:       -65.294 kW
       Mesh    2
       Max CFL number:  0.15E+00 at (  16,  48,  16)
       Max divergence:  0.51E+00 at (   1,  17,  14)
       Min divergence: -0.47E+00 at (  15,   2,   1)
       Max VN number:   0.57E-01 at (  15,  49,  16)
       No. of Lagrangian Particles:         15025
       Total Heat Release Rate:              0.373 kW
       Radiation Loss to Boundaries:       -14.517 kW
       Mesh    3
       Max CFL number:  0.10E+00 at (   1,   4,  15)
       Max divergence:  0.36E+00 at (  57,   1,  12)
       Min divergence: -0.38E+00 at (  64,   2,   1)
       Max VN number:   0.51E-01 at (   1,   1,  16)
       No. of Lagrangian Particles:          3190
       Radiation Loss to Boundaries:        -4.974 kW
       Mesh    4
       Max CFL number:  0.91E-01 at (  10,  11,   9)
       Max divergence:  0.48E+00 at (  14,   7,   8)
       Min divergence: -0.45E+00 at (  14,   9,  10)
       Max VN number:   0.40E-01 at (  14,   7,   8)
       No. of Lagrangian Particles:           284
       Radiation Loss to Boundaries:        -0.848 kW
       Mesh    5
       Max CFL number:  0.84E-01 at (  62,  12,  16)
       Max divergence:  0.96E-01 at (  64,   1,   1)
       Min divergence: -0.10E+00 at (  45,   1,   3)
       Max VN number:   0.32E-01 at (  64,  16,  16)
       Radiation Loss to Boundaries:        -0.551 kW
 


 Time Stepping Wall Clock Time (s):      553.700
 Total Elapsed Wall Clock Time (s):      558.806

STOP: FDS completed successfully (CHID: hallways)
