
 Fire Dynamics Simulator

 Current Date     : June 26, 2020  16:17:51
 Revision         : -AMG
 Revision Date    : Fri Jun 26 15:19:14 2020 +0200
 Compiler         : Intel ifort 19.0.5.281
 Compilation Date : Jun 26, 2020 15:25:32

 MPI Enabled;    Number of MPI Processes:       5
 OpenMP Enabled; Number of OpenMP Threads:      4

 MPI version: 3.1
 MPI library version: Intel(R) MPI Library 2018 Update 1 for Linux* OS


 Job TITLE        : Silly Multi-Mesh Test with structured ScaRC solver
 Job ID string    : hallways_scarc


 Grid Dimensions, Mesh     1

   Cells in the X Direction            48
   Cells in the Y Direction            16
   Cells in the Z Direction            16
   Number of Grid Cells             12288


 Physical Dimensions, Mesh     1

   Length (m)                       3.000
   Width  (m)                       1.000
   Height (m)                       1.000
   Initial Time Step (s)            0.049

 Grid Dimensions, Mesh     2

   Cells in the X Direction            16
   Cells in the Y Direction            64
   Cells in the Z Direction            16
   Number of Grid Cells             16384


 Physical Dimensions, Mesh     2

   Length (m)                       1.000
   Width  (m)                       4.000
   Height (m)                       1.000
   Initial Time Step (s)            0.049

 Grid Dimensions, Mesh     3

   Cells in the X Direction            64
   Cells in the Y Direction            16
   Cells in the Z Direction            16
   Number of Grid Cells             16384


 Physical Dimensions, Mesh     3

   Length (m)                       4.000
   Width  (m)                       1.000
   Height (m)                       1.000
   Initial Time Step (s)            0.049

 Grid Dimensions, Mesh     4

   Cells in the X Direction            16
   Cells in the Y Direction            16
   Cells in the Z Direction            48
   Number of Grid Cells             12288


 Physical Dimensions, Mesh     4

   Length (m)                       1.000
   Width  (m)                       1.000
   Height (m)                       3.000
   Initial Time Step (s)            0.049

 Grid Dimensions, Mesh     5

   Cells in the X Direction            64
   Cells in the Y Direction            16
   Cells in the Z Direction            16
   Number of Grid Cells             16384


 Physical Dimensions, Mesh     5

   Length (m)                       4.000
   Width  (m)                       1.000
   Height (m)                       1.000
   Initial Time Step (s)            0.049

Total Number of Grid Cells         73728


 Miscellaneous Parameters

   Simulation Start Time (s)          0.0
   Simulation End Time (s)           60.0
   LES Calculation
   Eddy Viscosity:           Deardorff Model (C_DEARDORFF = 0.10)
   Near-wall Eddy Viscosity: Smagorinsky with Van Driest damping (C_SMAGORINSKY = 0.20)
   Turbulent Prandtl Number:         0.50
   Turbulent Schmidt Number:         0.50
   Ambient Temperature (C):         20.00


 Mass Fraction Transformation Matrix to Convert Species Mixtures (Columns) to Primitive Species (Rows)

                         AIR       PROPANE   PRODUCTS
   PROPANE               0.000000  1.000000  0.000000
   NITROGEN              0.762470  0.000000  0.716510
   OXYGEN                0.230997  0.000000  0.000000
   CARBON DIOXIDE        0.000591  0.000000  0.178848
   CARBON MONOXIDE       0.000000  0.000000  0.000000
   WATER VAPOR           0.005941  0.000000  0.104039
   SOOT                  0.000000  0.000000  0.000603
   HYDROGEN              0.000000  0.000000  0.000000


 Primitive Species Information

   PROPANE
   Gas Species
   Molecular Weight (g/mol)            44.09562
   Ambient Density (kg/m^3)            1.833
   Enthalpy of Formation (J/kg)       -2.37E+06

   NITROGEN
   Gas Species
   Molecular Weight (g/mol)            28.01340
   Ambient Density (kg/m^3)            1.165
   Enthalpy of Formation (J/kg)        0.00E+00

   OXYGEN
   Gas Species
   Molecular Weight (g/mol)            31.99880
   Ambient Density (kg/m^3)            1.330
   Enthalpy of Formation (J/kg)        0.00E+00

   CARBON DIOXIDE
   Gas Species
   Molecular Weight (g/mol)            44.00950
   Ambient Density (kg/m^3)            1.830
   Enthalpy of Formation (J/kg)       -8.94E+06

   CARBON MONOXIDE
   Gas Species
   Molecular Weight (g/mol)            28.01010
   Ambient Density (kg/m^3)            1.164
   Enthalpy of Formation (J/kg)       -3.95E+06

   WATER VAPOR
   Gas Species
   Molecular Weight (g/mol)            18.01528
   Ambient Density (kg/m^3)            0.749
   Enthalpy of Formation (J/kg)       -1.34E+07

   SOOT
   Gas Species
   Molecular Weight (g/mol)            10.91042
   Ambient Density (kg/m^3)            0.454
   Enthalpy of Formation (J/kg)        0.00E+00

   HYDROGEN
   Gas Species
   Molecular Weight (g/mol)             2.01588
   Ambient Density (kg/m^3)            0.084
   Enthalpy of Formation (J/kg)        0.00E+00


 Tracked (Lumped) Species Information

   AIR
   Molecular Weight (g/mol)            28.75199
   Ambient Density (kg/m^3)            1.195
   Initial Mass Fraction               1.000
   Enthalpy of Formation (J/kg)     -8.50E+04

   Sub Species                    Mass Fraction     Mole Fraction
   NITROGEN                       7.624701E-01      7.825730E-01
   OXYGEN                         2.309974E-01      2.075589E-01
   CARBON DIOXIDE                 5.914651E-04      3.864120E-04
   WATER VAPOR                    5.940984E-03      9.481679E-03
 
     Viscosity (kg/m/s) Ambient,  293 K:  1.80E-05
                                  500 K:  2.61E-05
                                 1000 K:  4.13E-05
                                 1500 K:  5.37E-05
   Therm. Cond. (W/m/K) Ambient,  293 K:  2.56E-02
                                  500 K:  3.81E-02
                                 1000 K:  6.69E-02
                                 1500 K:  9.25E-02
        Enthalpy (J/kg) Ambient,  293 K: -9.01E+04
                                  500 K:  1.22E+05
                                 1000 K:  6.72E+05
                                 1500 K:  1.27E+06
    Spec. Heat (J/kg/K) Ambient,  293 K:  1.02E+03
                                  500 K:  1.04E+03
                                 1000 K:  1.16E+03
                                 1500 K:  1.23E+03
   Diff. Coeff. (m^2/s) Ambient,  293 K:  1.99E-05
                                  500 K:  4.96E-05
                                 1000 K:  1.58E-04
                                 1500 K:  3.09E-04

   PROPANE
   Molecular Weight (g/mol)            44.09562
   Ambient Density (kg/m^3)            1.833
   Initial Mass Fraction               0.000
   Enthalpy of Formation (J/kg)     -2.37E+06

   Sub Species                    Mass Fraction     Mole Fraction
   PROPANE                        1.000000E+00      1.000000E+00
 
     Viscosity (kg/m/s) Ambient,  293 K:  8.08E-06
                                  500 K:  1.31E-05
                                 1000 K:  2.23E-05
                                 1500 K:  2.96E-05
   Therm. Cond. (W/m/K) Ambient,  293 K:  1.66E-02
                                  500 K:  4.18E-02
                                 1000 K:  1.11E-01
                                 1500 K:  1.72E-01
        Enthalpy (J/kg) Ambient,  293 K: -2.38E+06
                                  500 K: -1.95E+06
                                 1000 K: -2.77E+05
                                 1500 K:  1.90E+06
    Spec. Heat (J/kg/K) Ambient,  293 K:  1.65E+03
                                  500 K:  2.55E+03
                                 1000 K:  3.96E+03
                                 1500 K:  4.67E+03
   Diff. Coeff. (m^2/s) Ambient,  293 K:  1.11E-05
                                  500 K:  2.86E-05
                                 1000 K:  9.32E-05
                                 1500 K:  1.83E-04

   PRODUCTS
   Molecular Weight (g/mol)            28.19160
   Ambient Density (kg/m^3)            1.172
   Initial Mass Fraction               0.000
   Enthalpy of Formation (J/kg)     -3.00E+06

   Sub Species                    Mass Fraction     Mole Fraction
   NITROGEN                       7.165100E-01      7.210680E-01
   CARBON DIOXIDE                 1.788479E-01      1.145664E-01
   CARBON MONOXIDE                0.000000E+00      0.000000E+00
   WATER VAPOR                    1.040393E-01      1.628081E-01
   SOOT                           6.027786E-04      1.557528E-03
 
     Viscosity (kg/m/s) Ambient,  293 K:  1.61E-05
                                  500 K:  2.39E-05
                                 1000 K:  3.89E-05
                                 1500 K:  5.14E-05
   Therm. Cond. (W/m/K) Ambient,  293 K:  2.34E-02
                                  500 K:  3.62E-02
                                 1000 K:  6.71E-02
                                 1500 K:  9.63E-02
        Enthalpy (J/kg) Ambient,  293 K: -3.00E+06
                                  500 K: -2.77E+06
                                 1000 K: -2.16E+06
                                 1500 K: -1.48E+06
    Spec. Heat (J/kg/K) Ambient,  293 K:  1.09E+03
                                  500 K:  1.14E+03
                                 1000 K:  1.30E+03
                                 1500 K:  1.40E+03
   Diff. Coeff. (m^2/s) Ambient,  293 K:  1.95E-05
                                  500 K:  4.95E-05
                                 1000 K:  1.60E-04
                                 1500 K:  3.15E-04


 Gas Phase Reaction Information

   Fuel                                           Heat of Combustion (kJ/kg)
   PROPANE                                                        45998.9362

   Stoichiometry

   Primitive Species Stoich. Coeff.
   Species ID                                                          Molar
   PROPANE                                                         -1.000000
   OXYGEN                                                          -4.962615
   CARBON DIOXIDE                                                   2.963626
   WATER VAPOR                                                      3.997979
   SOOT                                                             0.040416

   Tracked (Lumped) Species Stoich. Coeff.
   Species ID                                             Molar         Mass
   AIR                                               -23.909431   -15.589840
   PROPANE                                            -1.000000    -1.000000
   PRODUCTS                                           25.948837    16.589840

   Reaction Kinetics

   Arrhenius Parameters
   Pre-exponential:    Infinite
   Activation Energy:  N/A

   ODE Solver:  EXPLICIT EULER
   Extinction Model:  EXTINCTION 2
   Auto-Ignition Temperature (K):       0.0
   Critical Flame Temperature (K):   1720.2


 Material Information


 Surface Conditions

   0 INERT (DEFAULT)

   1 FIRE
     HRR Per Unit Area (kW/m2)       1000.0
     PROPANE Mass Flux (kg/s/m2)   2.17E-02

   2 OPEN
     Passive Vent to Atmosphere

   3 MIRROR
     Symmetry Plane

   4 INTERPOLATED

   5 PERIODIC

   6 HVAC

   7 MASSLESS TRACER

   8 DROPLET

   9 EVACUATION_OUTFLOW
     Normal Velocity (m/s)         0.000

  10 MASSLESS TARGET

  11 PERIODIC WIND


 Slice File Information, Mesh     1

   Sampling Interval (s)             0.060

   1 Nodes:   0  48   8   8   0  16, Quantity: TEMPERATURE
   2 Nodes:   0  48   8   8   0  16, Quantity: U-VELOCITY
   3 Nodes:   0  48   8   8   0  16, Quantity: V-VELOCITY
   4 Nodes:   0  48   8   8   0  16, Quantity: W-VELOCITY


 Radiation Model Information

   Number of control angles  104
   Time step increment         3
   Angle increment             5
   Theta band N_phi   Solid angle
     1:        4     0.120
     2:       12     0.114
     3:       16     0.127
     4:       20     0.120
     5:       20     0.120
     6:       16     0.127
     7:       12     0.114
     8:        4     0.120
   Using gray gas absorption.
   Mean beam length  0.100 m


 SCARC Information

   Discretization             STRUCTURED
   Global solver                  KRYLOV
   Storage technique            BANDWISE
   Preconditioner                    FFT
   Max iterations                   1000
   Stopping accuracy            0.10E-07
 
 

 Run Time Diagnostics

       Time Step       1   June 26, 2020  16:17:52
       Step Size:    0.494E-01 s, Total Time:       0.05 s
       Pressure Iterations:      1
       Maximum Velocity Error:  0.28E-03 on Mesh   2 at (   0  17   1)
       Maximum Pressure Error:  0.20E-01 on Mesh   1 at (  16   6   1)
       ScaRC: iterations    38, residual  0.50E-08, convergence rate   0.57E+00
       ---------------------------------------------------------------
       Mesh    1
       Max CFL number:  0.15E-01 at (  27,   6,  13)
       Max divergence:  0.20E-05 at (  16,   9,   2)
       Min divergence: -0.31E-02 at (  16,   9,   1)
       Max VN number:   0.12E-01 at (  18,  10,   7)
       No. of Lagrangian Particles:            36
       Mesh    2
       Max CFL number:  0.15E-01 at (  13,  23,   4)
       Max divergence:  0.11E-05 at (  15,  32,   5)
       Min divergence: -0.13E-05 at (   6,  51,   7)
       Max VN number:   0.13E-01 at (   8,  52,   3)
       Mesh    3
       Max CFL number:  0.15E-01 at (  19,  13,  11)
       Max divergence:  0.12E-05 at (  63,   5,   5)
       Min divergence: -0.13E-05 at (  21,   8,   7)
       Max VN number:   0.13E-01 at (  21,   8,   7)
       Mesh    4
       Max CFL number:  0.15E-01 at (  14,   4,  39)
       Max divergence:  0.12E-05 at (   5,  14,  10)
       Min divergence: -0.12E-05 at (   6,   5,  19)
       Max VN number:   0.13E-01 at (   5,  14,  10)
       Mesh    5
       Max CFL number:  0.15E-01 at (   4,   9,   7)
       Max divergence:  0.12E-05 at (   3,  14,   8)
       Min divergence: -0.12E-05 at (  21,  13,   2)
       Max VN number:   0.12E-01 at (   9,  11,  10)
 
       Time Step       2   June 26, 2020  16:17:52
       Step Size:    0.494E-01 s, Total Time:       0.10 s
       Pressure Iterations:      2
       Maximum Velocity Error:  0.19E-01 on Mesh   2 at (   0  17   1)
       Maximum Pressure Error:  0.19E+03 on Mesh   1 at (  13   9   1)
       ScaRC: iterations    36, residual  0.54E-08, convergence rate   0.51E+00
       ---------------------------------------------------------------
       Mesh    1
       Max CFL number:  0.15E-01 at (  27,   6,  13)
       Max divergence:  0.13E+01 at (  13,   6,   1)
       Min divergence: -0.12E-05 at (  10,  11,   3)
       Max VN number:   0.12E-01 at (  18,  10,   7)
       No. of Lagrangian Particles:           180
       Total Heat Release Rate:              4.194 kW
       Mesh    2
       Max CFL number:  0.15E-01 at (  12,  23,   4)
       Max divergence:  0.11E-05 at (  15,  32,   5)
       Min divergence: -0.13E-05 at (   6,  51,   7)
       Max VN number:   0.12E-01 at (   8,  52,   3)
       Mesh    3
       Max CFL number:  0.15E-01 at (  18,  13,  11)
       Max divergence:  0.12E-05 at (  63,   5,   5)
       Min divergence: -0.13E-05 at (  21,   8,   7)
       Max VN number:   0.13E-01 at (  21,   8,   7)
       Mesh    4
       Max CFL number:  0.15E-01 at (  14,   4,  39)
       Max divergence:  0.12E-05 at (   5,  14,  10)
       Min divergence: -0.12E-05 at (   6,   5,  19)
       Max VN number:   0.13E-01 at (   5,  14,  10)
       Mesh    5
       Max CFL number:  0.15E-01 at (   4,   9,   7)
       Max divergence:  0.12E-05 at (   3,  14,   8)
       Min divergence: -0.12E-05 at (  21,  13,   2)
       Max VN number:   0.12E-01 at (   9,  11,  10)
 
       Time Step       3   June 26, 2020  16:17:52
       Step Size:    0.494E-01 s, Total Time:       0.15 s
       Pressure Iterations:      2
       Maximum Velocity Error:  0.26E-01 on Mesh   2 at (   0  17   1)
       Maximum Pressure Error:  0.37E+03 on Mesh   1 at (  11   6   1)
       ScaRC: iterations    36, residual  0.69E-08, convergence rate   0.51E+00
       ---------------------------------------------------------------
       Mesh    1
       Max CFL number:  0.12E+00 at (  16,   8,   1)
       Max divergence:  0.29E+01 at (  14,   8,   1)
       Min divergence: -0.11E-05 at (  46,   7,   7)
       Max VN number:   0.16E-01 at (  16,   9,   2)
       No. of Lagrangian Particles:           360
       Total Heat Release Rate:              9.673 kW
       Radiation Loss to Boundaries:        -0.134 kW
       Mesh    2
       Max CFL number:  0.28E-01 at (   1,  16,   2)
       Max divergence:  0.11E-05 at (  15,  32,   5)
       Min divergence: -0.13E-05 at (   6,  51,   7)
       Max VN number:   0.13E-01 at (   1,  16,   2)
       Mesh    3
       Max CFL number:  0.15E-01 at (  18,  13,  11)
       Max divergence:  0.11E-05 at (  63,   5,   5)
       Min divergence: -0.13E-05 at (  21,   8,   7)
       Max VN number:   0.12E-01 at (  21,   8,   7)
       Mesh    4
       Max CFL number:  0.15E-01 at (  14,   4,  39)
       Max divergence:  0.12E-05 at (   5,  14,  10)
       Min divergence: -0.12E-05 at (   6,   5,  19)
       Max VN number:   0.13E-01 at (   5,  14,  10)
       Mesh    5
       Max CFL number:  0.15E-01 at (   4,   9,   7)
       Max divergence:  0.12E-05 at (   3,  14,   8)
       Min divergence: -0.12E-05 at (  21,  13,   2)
       Max VN number:   0.12E-01 at (   9,  11,  10)
 
       Time Step       4   June 26, 2020  16:17:52
       Step Size:    0.494E-01 s, Total Time:       0.20 s
       Pressure Iterations:      2
       Maximum Velocity Error:  0.27E-01 on Mesh   2 at (   0  18  16)
       Maximum Pressure Error:  0.72E+03 on Mesh   1 at (  11  11   1)
       ScaRC: iterations    37, residual  0.52E-08, convergence rate   0.51E+00
       ---------------------------------------------------------------
       Mesh    1
       Max CFL number:  0.24E+00 at (  16,   8,   1)
       Max divergence:  0.45E+01 at (  15,  10,   1)
       Min divergence: -0.10E-05 at (  46,   7,   7)
       Max VN number:   0.24E-01 at (  16,   9,   2)
       No. of Lagrangian Particles:           540
       Total Heat Release Rate:             15.948 kW
       Radiation Loss to Boundaries:        -0.549 kW
       Mesh    2
       Max CFL number:  0.51E-01 at (   1,  16,   2)
       Max divergence:  0.11E-05 at (  15,  32,   5)
       Min divergence: -0.13E-05 at (   6,  51,   7)
       Max VN number:   0.20E-01 at (   1,  16,   2)
       Mesh    3
       Max CFL number:  0.15E-01 at (  18,  13,  11)
       Max divergence:  0.12E-05 at (  63,   5,   5)
       Min divergence: -0.13E-05 at (  21,   8,   7)
       Max VN number:   0.12E-01 at (  21,   8,   7)
       Mesh    4
       Max CFL number:  0.15E-01 at (  14,   4,  39)
       Max divergence:  0.12E-05 at (   5,  14,  10)
       Min divergence: -0.12E-05 at (   6,   5,  19)
       Max VN number:   0.13E-01 at (   5,  14,  10)
       Mesh    5
       Max CFL number:  0.15E-01 at (   4,   9,   7)
       Max divergence:  0.12E-05 at (   3,  14,   8)
       Min divergence: -0.12E-05 at (  21,  13,   2)
       Max VN number:   0.12E-01 at (   9,  11,  10)
 
       Time Step       5   June 26, 2020  16:17:52
       Step Size:    0.494E-01 s, Total Time:       0.25 s
       Pressure Iterations:      1
       Maximum Velocity Error:  0.28E-01 on Mesh   2 at (  17   1  14)
       Maximum Pressure Error:  0.94E+03 on Mesh   1 at (  11  11   1)
       ScaRC: iterations    38, residual  0.69E-08, convergence rate   0.52E+00
       ---------------------------------------------------------------
       Mesh    1
       Max CFL number:  0.38E+00 at (  14,   8,   1)
       Max divergence:  0.57E+01 at (  14,   7,   1)
       Min divergence: -0.10E-05 at (  46,   7,   7)
       Max VN number:   0.36E-01 at (  11,  11,   2)
       No. of Lagrangian Particles:           720
       Total Heat Release Rate:             22.693 kW
       Radiation Loss to Boundaries:        -2.226 kW
       Mesh    2
       Max CFL number:  0.70E-01 at (   1,  16,   2)
       Max divergence:  0.11E-05 at (  15,  32,   5)
       Min divergence: -0.13E-05 at (   6,  51,   7)
       Max VN number:   0.26E-01 at (   1,  16,   2)
       Mesh    3
       Max CFL number:  0.15E-01 at (  18,  13,  11)
       Max divergence:  0.12E-05 at (  63,   5,   5)
       Min divergence: -0.13E-05 at (  21,   8,   7)
       Max VN number:   0.12E-01 at (  21,   8,   7)
       Mesh    4
       Max CFL number:  0.15E-01 at (  14,   4,  39)
       Max divergence:  0.12E-05 at (   5,  14,  10)
       Min divergence: -0.12E-05 at (   6,   5,  19)
       Max VN number:   0.13E-01 at (   5,  14,  10)
       Mesh    5
       Max CFL number:  0.15E-01 at (   4,   9,   7)
       Max divergence:  0.12E-05 at (  41,  12,  11)
       Min divergence: -0.12E-05 at (  21,  13,   2)
       Max VN number:   0.12E-01 at (   9,  11,  10)
 
       Time Step       6   June 26, 2020  16:17:52
       Step Size:    0.494E-01 s, Total Time:       0.30 s
       Pressure Iterations:      2
       Maximum Velocity Error:  0.23E-01 on Mesh   2 at (  17   1  15)
       Maximum Pressure Error:  0.35E+03 on Mesh   1 at (  13   8   1)
       ScaRC: iterations    38, residual  0.71E-08, convergence rate   0.52E+00
       ---------------------------------------------------------------
       Mesh    1
       Max CFL number:  0.47E+00 at (  16,   9,   1)
       Max divergence:  0.49E+01 at (  16,   9,   1)
       Min divergence: -0.28E-01 at (  16,   9,   2)
       Max VN number:   0.56E-01 at (  11,  11,   2)
       No. of Lagrangian Particles:           900
       Total Heat Release Rate:             29.685 kW
       Radiation Loss to Boundaries:        -9.749 kW
       Mesh    2
       Max CFL number:  0.81E-01 at (   1,  16,   6)
       Max divergence:  0.11E-05 at (  15,  32,   5)
       Min divergence: -0.13E-05 at (   6,  51,   7)
       Max VN number:   0.30E-01 at (   1,  16,   2)
       Mesh    3
       Max CFL number:  0.15E-01 at (  18,  13,  11)
       Max divergence:  0.12E-05 at (  63,   5,   5)
       Min divergence: -0.13E-05 at (  21,   8,   7)
       Max VN number:   0.12E-01 at (  21,   8,   7)
       Mesh    4
       Max CFL number:  0.15E-01 at (  14,   4,  39)
       Max divergence:  0.12E-05 at (   5,  14,  10)
       Min divergence: -0.12E-05 at (   6,   5,  19)
       Max VN number:   0.13E-01 at (   5,  14,  10)
       Mesh    5
       Max CFL number:  0.14E-01 at (   4,   9,   7)
       Max divergence:  0.12E-05 at (  41,  12,  11)
       Min divergence: -0.12E-05 at (  21,  13,   2)
       Max VN number:   0.12E-01 at (   9,  11,  10)
 
       Time Step       7   June 26, 2020  16:17:53
       Step Size:    0.494E-01 s, Total Time:       0.35 s
       Pressure Iterations:      3
       Maximum Velocity Error:  0.31E-01 on Mesh   2 at (   0  18   1)
       Maximum Pressure Error:  0.32E+04 on Mesh   1 at (  11   6   1)
       ScaRC: iterations    39, residual  0.39E-08, convergence rate   0.52E+00
       ---------------------------------------------------------------
       Mesh    1
       Max CFL number:  0.47E+00 at (  11,  11,   1)
       Max divergence:  0.21E+01 at (  11,  11,   1)
       Min divergence: -0.67E-01 at (  15,  10,   2)
       Max VN number:   0.84E-01 at (  11,  11,   2)
       No. of Lagrangian Particles:          1080
       Total Heat Release Rate:             36.767 kW
       Radiation Loss to Boundaries:       -28.473 kW
       Mesh    2
       Max CFL number:  0.73E-01 at (   1,  16,   6)
       Max divergence:  0.11E-05 at (  15,  32,   5)
       Min divergence: -0.13E-05 at (   6,  51,   7)
       Max VN number:   0.25E-01 at (   1,  16,   2)
       Mesh    3
       Max CFL number:  0.15E-01 at (  18,  13,  11)
       Max divergence:  0.12E-05 at (  63,   5,   5)
       Min divergence: -0.13E-05 at (  21,   8,   7)
       Max VN number:   0.12E-01 at (  21,   8,   7)
       Mesh    4
       Max CFL number:  0.14E-01 at (  14,   4,  39)
       Max divergence:  0.12E-05 at (   5,  14,  10)
       Min divergence: -0.12E-05 at (   6,   5,  19)
       Max VN number:   0.13E-01 at (   5,  14,  10)
       Mesh    5
       Max CFL number:  0.14E-01 at (   4,   9,   7)
       Max divergence:  0.12E-05 at (  41,  12,  11)
       Min divergence: -0.12E-05 at (  21,  13,   2)
       Max VN number:   0.12E-01 at (   9,  11,  10)
 
       Time Step       8   June 26, 2020  16:17:53
       Step Size:    0.494E-01 s, Total Time:       0.40 s
       Pressure Iterations:      3
       Maximum Velocity Error:  0.31E-01 on Mesh   2 at (   0  17   4)
       Maximum Pressure Error:  0.38E+04 on Mesh   1 at (  11   6   1)
       ScaRC: iterations    39, residual  0.58E-08, convergence rate   0.53E+00
       ---------------------------------------------------------------
       Mesh    1
       Max CFL number:  0.40E+00 at (  11,  11,   1)
       Max divergence:  0.64E+01 at (  11,  11,   1)
       Min divergence: -0.36E+00 at (  11,  11,   2)
       Max VN number:   0.11E+00 at (  11,  11,   2)
       No. of Lagrangian Particles:          1260
       Total Heat Release Rate:             43.830 kW
       Radiation Loss to Boundaries:       -25.059 kW
       Mesh    2
       Max CFL number:  0.36E-01 at (   1,  21,  12)
       Max divergence:  0.11E-05 at (  15,  32,   5)
       Min divergence: -0.13E-05 at (   6,  51,   7)
       Max VN number:   0.12E-01 at (   7,  22,   2)
       Mesh    3
       Max CFL number:  0.15E-01 at (  18,  13,  11)
       Max divergence:  0.12E-05 at (  63,   5,   5)
       Min divergence: -0.13E-05 at (  21,   8,   7)
       Max VN number:   0.12E-01 at (  21,   8,   7)
       Mesh    4
       Max CFL number:  0.14E-01 at (  14,   4,  39)
       Max divergence:  0.12E-05 at (   5,  14,  10)
       Min divergence: -0.12E-05 at (   6,   5,  19)
       Max VN number:   0.13E-01 at (   5,  14,  10)
       Mesh    5
       Max CFL number:  0.14E-01 at (   4,   9,   7)
       Max divergence:  0.12E-05 at (  41,  12,  11)
       Min divergence: -0.12E-05 at (  21,  13,   2)
       Max VN number:   0.12E-01 at (   9,  11,  10)
 
       Time Step       9   June 26, 2020  16:17:53
       Step Size:    0.494E-01 s, Total Time:       0.44 s
       Pressure Iterations:      3
       Maximum Velocity Error:  0.18E-01 on Mesh   2 at (   0  17   4)
       Maximum Pressure Error:  0.38E+04 on Mesh   1 at (  11   6   1)
       ScaRC: iterations    39, residual  0.83E-08, convergence rate   0.54E+00
       ---------------------------------------------------------------
       Mesh    1
       Max CFL number:  0.72E+00 at (  11,  11,   1)
       Max divergence:  0.64E+01 at (  11,  11,   1)
       Min divergence: -0.14E+01 at (  11,  11,   2)
       Max VN number:   0.17E+00 at (  11,  11,   2)
       No. of Lagrangian Particles:          1440
       Total Heat Release Rate:             25.099 kW
       Radiation Loss to Boundaries:       -18.652 kW
       Mesh    2
       Max CFL number:  0.78E-01 at (   1,  17,   2)
       Max divergence:  0.11E-05 at (  15,  32,   5)
       Min divergence: -0.13E-05 at (   6,  51,   7)
       Max VN number:   0.28E-01 at (   1,  16,   2)
       Mesh    3
       Max CFL number:  0.15E-01 at (  18,  13,  11)
       Max divergence:  0.12E-05 at (  24,   3,  13)
       Min divergence: -0.13E-05 at (  21,   8,   7)
       Max VN number:   0.12E-01 at (  21,   8,   7)
       Mesh    4
       Max CFL number:  0.14E-01 at (  14,   4,  39)
       Max divergence:  0.12E-05 at (   5,  14,  10)
       Min divergence: -0.12E-05 at (   6,   5,  19)
       Max VN number:   0.13E-01 at (   5,  14,  10)
       Mesh    5
       Max CFL number:  0.14E-01 at (   4,   9,   7)
       Max divergence:  0.12E-05 at (  41,  12,  11)
       Min divergence: -0.12E-05 at (  21,  13,   2)
       Max VN number:   0.12E-01 at (   9,  11,  10)
 
       Time Step      10   June 26, 2020  16:17:53
       Step Size:    0.494E-01 s, Total Time:       0.49 s
       Pressure Iterations:      4
       Maximum Velocity Error:  0.26E-01 on Mesh   2 at (   0  18   2)
       Maximum Pressure Error:  0.35E+04 on Mesh   1 at (  16  11   1)
       ScaRC: iterations    40, residual  0.34E-08, convergence rate   0.53E+00
       ---------------------------------------------------------------
       Mesh    1
       Max CFL number:  0.91E+00 at (  11,  11,   1)
       Max divergence:  0.13E+02 at (  16,   9,   1)
       Min divergence: -0.21E+01 at (  15,  11,   2)
       Max VN number:   0.26E+00 at (  11,  11,   2)
       No. of Lagrangian Particles:          1620
       Total Heat Release Rate:             26.286 kW
       Radiation Loss to Boundaries:        -8.442 kW
       Mesh    2
       Max CFL number:  0.35E-01 at (   1,  16,   6)
       Max divergence:  0.11E-05 at (  15,  32,   5)
       Min divergence: -0.13E-05 at (   6,  51,   7)
       Max VN number:   0.12E-01 at (   7,  22,   2)
       Mesh    3
       Max CFL number:  0.15E-01 at (  18,  13,  11)
       Max divergence:  0.12E-05 at (  24,   3,  13)
       Min divergence: -0.13E-05 at (  21,   8,   7)
       Max VN number:   0.12E-01 at (  21,   8,   7)
       Mesh    4
       Max CFL number:  0.14E-01 at (  14,   4,  39)
       Max divergence:  0.12E-05 at (   5,  14,  10)
       Min divergence: -0.12E-05 at (   6,   5,  19)
       Max VN number:   0.13E-01 at (   5,  14,  10)
       Mesh    5
       Max CFL number:  0.14E-01 at (   4,   9,   7)
       Max divergence:  0.12E-05 at (  41,  12,  11)
       Min divergence: -0.12E-05 at (  21,  13,   2)
       Max VN number:   0.12E-01 at (   9,  11,  10)
 
       Time Step      20   June 26, 2020  16:17:56
       Step Size:    0.212E-01 s, Total Time:       0.78 s
       Pressure Iterations:      5
       Maximum Velocity Error:  0.30E-01 on Mesh   2 at (  17   1  16)
       Maximum Pressure Error:  0.32E+04 on Mesh   1 at (  15  10   1)
       ScaRC: iterations    41, residual  0.55E-08, convergence rate   0.52E+00
       ---------------------------------------------------------------
       Mesh    1
       Max CFL number:  0.85E+00 at (  15,  10,   2)
       Max divergence:  0.34E+02 at (  15,   9,   1)
       Min divergence: -0.34E+01 at (  14,   7,   2)
       Max VN number:   0.21E+00 at (  16,   8,   3)
       No. of Lagrangian Particles:          2772
       Total Heat Release Rate:             70.150 kW
       Radiation Loss to Boundaries:       -21.264 kW
       Mesh    2
       Max CFL number:  0.70E-01 at (   1,  16,   6)
       Max divergence:  0.49E-05 at (   2,  16,   8)
       Min divergence: -0.22E-05 at (   1,  16,   7)
       Max VN number:   0.21E-01 at (   1,  16,   7)
       Mesh    3
       Max CFL number:  0.17E-01 at (   1,   1,  16)
       Max divergence:  0.15E-05 at (  24,   3,  13)
       Min divergence: -0.11E-05 at (  21,   8,   7)
       Max VN number:   0.51E-02 at (  21,   8,   7)
       Mesh    4
       Max CFL number:  0.60E-02 at (  14,   4,  39)
       Max divergence:  0.14E-05 at (   5,  14,  10)
       Min divergence: -0.11E-05 at (   6,   5,  19)
       Max VN number:   0.53E-02 at (   5,  14,  10)
       Mesh    5
       Max CFL number:  0.60E-02 at (   4,   9,   7)
       Max divergence:  0.12E-05 at (  41,  12,  11)
       Min divergence: -0.12E-05 at (  21,  13,   2)
       Max VN number:   0.51E-02 at (   9,  11,  10)
 
       Time Step      30   June 26, 2020  16:17:58
       Step Size:    0.103E-01 s, Total Time:       0.93 s
       Pressure Iterations:      1
       Maximum Velocity Error:  0.31E-01 on Mesh   2 at (   0  21   4)
       Maximum Pressure Error:  0.47E+04 on Mesh   1 at (  14   8   7)
       ScaRC: iterations    43, residual  0.65E-08, convergence rate   0.50E+00
       ---------------------------------------------------------------
       Mesh    1
       Max CFL number:  0.83E+00 at (  15,   8,   4)
       Max divergence:  0.16E+02 at (  14,   7,   5)
       Min divergence: -0.22E+01 at (  15,   7,   2)
       Max VN number:   0.18E+00 at (  14,   6,   6)
       No. of Lagrangian Particles:          3312
       Total Heat Release Rate:            108.359 kW
       Radiation Loss to Boundaries:       -31.824 kW
       Mesh    2
       Max CFL number:  0.75E-01 at (   1,  16,   6)
       Max divergence:  0.29E-03 at (   1,  14,   8)
       Min divergence: -0.12E-05 at (   6,  51,   7)
       Max VN number:   0.29E-01 at (   1,  16,  16)
       Radiation Loss to Boundaries:         0.022 kW
       Mesh    3
       Max CFL number:  0.25E-01 at (   1,   1,  16)
       Max divergence:  0.31E-05 at (  49,  16,  16)
       Min divergence: -0.10E-05 at (  25,   4,   3)
       Max VN number:   0.28E-02 at (   1,   1,  16)
       Mesh    4
       Max CFL number:  0.65E-02 at (   1,   5,   1)
       Max divergence:  0.31E-05 at (   1,  13,   1)
       Min divergence: -0.10E-05 at (   8,  11,  44)
       Max VN number:   0.26E-02 at (   2,  11,  26)
       Mesh    5
       Max CFL number:  0.34E-02 at (  15,   4,  12)
       Max divergence:  0.12E-05 at (  41,  12,  11)
       Min divergence: -0.12E-05 at (  21,  13,   2)
       Max VN number:   0.24E-02 at (   9,  11,  10)
 
       Time Step      40   June 26, 2020  16:18:00
       Step Size:    0.103E-01 s, Total Time:       1.03 s
       Pressure Iterations:      1
       Maximum Velocity Error:  0.28E-01 on Mesh   2 at (   0  64  16)
       Maximum Pressure Error:  0.19E+04 on Mesh   1 at (  14  10   7)
       ScaRC: iterations    43, residual  0.94E-08, convergence rate   0.52E+00
       ---------------------------------------------------------------
       Mesh    1
       Max CFL number:  0.93E+00 at (  14,   8,   5)
       Max divergence:  0.14E+02 at (  16,   9,   1)
       Min divergence: -0.46E+01 at (  13,  10,   4)
       Max VN number:   0.24E+00 at (  14,   5,   9)
       No. of Lagrangian Particles:          3708
       Total Heat Release Rate:            103.824 kW
       Radiation Loss to Boundaries:       -32.754 kW
       Mesh    2
       Max CFL number:  0.82E-01 at (   1,  16,   6)
       Max divergence:  0.27E-03 at (   1,  14,   9)
       Min divergence: -0.11E-05 at (   6,  51,   7)
       Max VN number:   0.26E-01 at (   1,  16,  16)
       Radiation Loss to Boundaries:         0.031 kW
       Mesh    3
       Max CFL number:  0.48E-01 at (   1,   1,  16)
       Max divergence:  0.75E-05 at (  49,  16,  16)
       Min divergence: -0.85E-06 at (  25,   4,   3)
       Max VN number:   0.96E-02 at (   1,   1,  16)
       Mesh    4
       Max CFL number:  0.18E-01 at (   1,  12,   1)
       Max divergence:  0.81E-05 at (   1,  13,   1)
       Min divergence: -0.84E-06 at (   5,   7,  47)
       Max VN number:   0.25E-02 at (   2,  11,  26)
       Mesh    5
       Max CFL number:  0.58E-02 at (  63,   2,   1)
       Max divergence:  0.15E-05 at (  64,  13,   2)
       Min divergence: -0.12E-05 at (  21,  13,   2)
       Max VN number:   0.24E-02 at (   9,  11,  10)
 
       Time Step      50   June 26, 2020  16:18:02
       Step Size:    0.103E-01 s, Total Time:       1.13 s
       Pressure Iterations:      1
       Maximum Velocity Error:  0.29E-01 on Mesh   3 at (  33  13  17)
       Maximum Pressure Error:  0.17E+04 on Mesh   1 at (  14   8  13)
       ScaRC: iterations    43, residual  0.63E-08, convergence rate   0.51E+00
       ---------------------------------------------------------------
       Mesh    1
       Max CFL number:  0.85E+00 at (  16,  10,   9)
       Max divergence:  0.17E+02 at (  12,  10,   1)
       Min divergence: -0.40E+01 at (  15,   8,   6)
       Max VN number:   0.27E+00 at (  16,  10,   8)
       No. of Lagrangian Particles:          4068
       Total Heat Release Rate:             82.235 kW
       Radiation Loss to Boundaries:       -21.624 kW
       Mesh    2
       Max CFL number:  0.77E-01 at (  16,  49,  15)
       Max divergence:  0.28E-03 at (   1,  14,   9)
       Min divergence: -0.10E-05 at (   6,  51,   7)
       Max VN number:   0.31E-01 at (  16,  49,  16)
       Radiation Loss to Boundaries:         0.033 kW
       Mesh    3
       Max CFL number:  0.66E-01 at (   1,   1,  16)
       Max divergence:  0.15E-04 at (  49,  16,  16)
       Min divergence: -0.75E-06 at (  25,   4,   3)
       Max VN number:   0.17E-01 at (   1,   1,  16)
       Mesh    4
       Max CFL number:  0.36E-01 at (   1,  12,   1)
       Max divergence:  0.17E-04 at (   1,   1,   1)
       Min divergence: -0.68E-06 at (   5,   7,  47)
       Max VN number:   0.60E-02 at (   1,  16,   1)
       Mesh    5
       Max CFL number:  0.15E-01 at (  64,  14,   1)
       Max divergence:  0.26E-05 at (  64,  13,   2)
       Min divergence: -0.12E-05 at (   7,  10,   2)
       Max VN number:   0.24E-02 at (   9,  11,  10)
 
       Time Step      60   June 26, 2020  16:18:03
       Step Size:    0.761E-02 s, Total Time:       1.22 s
       Pressure Iterations:      1
       Maximum Velocity Error:  0.26E-01 on Mesh   4 at (   0   3  12)
       Maximum Pressure Error:  0.21E+04 on Mesh   1 at (  15   9  12)
       ScaRC: iterations    43, residual  0.63E-08, convergence rate   0.51E+00
       ---------------------------------------------------------------
       Mesh    1
       Max CFL number:  0.87E+00 at (  15,   9,   9)
       Max divergence:  0.16E+02 at (  16,  11,   1)
       Min divergence: -0.29E+01 at (  14,   2,  12)
       Max VN number:   0.23E+00 at (  16,  10,  12)
       No. of Lagrangian Particles:          4392
       Total Heat Release Rate:             97.340 kW
       Radiation Loss to Boundaries:       -28.754 kW
       Mesh    2
       Max CFL number:  0.58E-01 at (  16,  48,  15)
       Max divergence:  0.36E-03 at (   1,  14,  13)
       Min divergence: -0.88E-06 at (   6,  51,   7)
       Max VN number:   0.22E-01 at (  16,  49,  16)
       Radiation Loss to Boundaries:         0.051 kW
       Mesh    3
       Max CFL number:  0.45E-01 at (   1,   1,   2)
       Max divergence:  0.21E-04 at (  49,  10,  16)
       Min divergence: -0.11E-05 at (  16,  14,   6)
       Max VN number:   0.16E-01 at (  49,   1,  16)
       Mesh    4
       Max CFL number:  0.40E-01 at (   1,  10,   1)
       Max divergence:  0.25E-04 at (   1,   1,   1)
       Min divergence: -0.44E-06 at (   5,   7,  47)
       Max VN number:   0.89E-02 at (   1,  16,   1)
       Mesh    5
       Max CFL number:  0.24E-01 at (  64,  14,   1)
       Max divergence:  0.45E-05 at (  64,  13,   2)
       Min divergence: -0.12E-05 at (   7,  10,   2)
       Max VN number:   0.37E-02 at (  64,   1,   1)
 
       Time Step      70   June 26, 2020  16:18:05
       Step Size:    0.681E-02 s, Total Time:       1.30 s
       Pressure Iterations:      1
       Maximum Velocity Error:  0.88E-02 on Mesh   4 at (   0  11  24)
       Maximum Pressure Error:  0.14E+04 on Mesh   1 at (  15   9  16)
       ScaRC: iterations    42, residual  0.33E-08, convergence rate   0.49E+00
       ---------------------------------------------------------------
       Mesh    1
       Max CFL number:  0.88E+00 at (  14,   8,  11)
       Max divergence:  0.16E+02 at (  16,  11,   1)
       Min divergence: -0.36E+01 at (  15,   9,  15)
       Max VN number:   0.19E+00 at (  16,  10,  16)
       No. of Lagrangian Particles:          4680
       Total Heat Release Rate:             86.401 kW
       Radiation Loss to Boundaries:       -23.107 kW
       Mesh    2
       Max CFL number:  0.48E-01 at (  16,  48,  15)
       Max divergence:  0.25E-03 at (   1,   4,  12)
       Min divergence: -0.79E-06 at (   7,  58,   9)
       Max VN number:   0.16E-01 at (  16,  49,   1)
       Radiation Loss to Boundaries:         0.041 kW
       Mesh    3
       Max CFL number:  0.46E-01 at (  49,  14,  16)
       Max divergence:  0.23E-04 at (  49,  10,  16)
       Min divergence: -0.14E-05 at (  16,  14,   6)
       Max VN number:   0.18E-01 at (  49,   1,  16)
       Mesh    4
       Max CFL number:  0.40E-01 at (   1,  10,   1)
       Max divergence:  0.28E-04 at (   1,  10,   1)
       Min divergence: -0.28E-06 at (   2,   9,  48)
       Max VN number:   0.14E-01 at (   1,   1,  33)
       Mesh    5
       Max CFL number:  0.35E-01 at (  64,  14,   1)
       Max divergence:  0.69E-05 at (  64,  13,   2)
       Min divergence: -0.12E-05 at (   7,  10,   2)
       Max VN number:   0.81E-02 at (  64,   1,   1)
 
       Time Step      80   June 26, 2020  16:18:06
       Step Size:    0.749E-02 s, Total Time:       1.37 s
       Pressure Iterations:      1
       Maximum Velocity Error:  0.23E-01 on Mesh   4 at (   0  16  15)
       Maximum Pressure Error:  0.27E+04 on Mesh   1 at (  14   9   9)
       ScaRC: iterations    43, residual  0.57E-08, convergence rate   0.51E+00
       ---------------------------------------------------------------
       Mesh    1
       Max CFL number:  0.74E+00 at (  15,   8,  14)
       Max divergence:  0.14E+02 at (  16,  11,   1)
       Min divergence: -0.28E+01 at (  15,   8,  12)
       Max VN number:   0.34E+00 at (  16,   9,  16)
       No. of Lagrangian Particles:          4896
       Total Heat Release Rate:             95.785 kW
       Radiation Loss to Boundaries:       -25.979 kW
       Mesh    2
       Max CFL number:  0.53E-01 at (  16,  49,  15)
       Max divergence:  0.24E-03 at (   1,   4,  12)
       Min divergence: -0.75E-06 at (   4,  53,   6)
       Max VN number:   0.18E-01 at (  16,  49,  15)
       Radiation Loss to Boundaries:         0.040 kW
       Mesh    3
       Max CFL number:  0.55E-01 at (  49,  14,  16)
       Max divergence:  0.22E-04 at (  49,  10,  16)
       Min divergence: -0.14E-05 at (  29,   8,  14)
       Max VN number:   0.20E-01 at (  49,   1,  16)
       Mesh    4
       Max CFL number:  0.64E-01 at (   1,  11,  32)
       Max divergence:  0.39E-04 at (   1,   3,  32)
       Min divergence: -0.20E-06 at (   2,   9,  48)
       Max VN number:   0.27E-01 at (   1,   1,  33)
       Mesh    5
       Max CFL number:  0.55E-01 at (  64,  14,   1)
       Max divergence:  0.99E-05 at (  64,   9,   3)
       Min divergence: -0.13E-05 at (   7,  10,   2)
       Max VN number:   0.15E-01 at (  64,   1,   1)
 
       Time Step      90   June 26, 2020  16:18:07
       Step Size:    0.711E-02 s, Total Time:       1.44 s
       Pressure Iterations:      1
       Maximum Velocity Error:  0.25E-01 on Mesh   4 at (   0  15  21)
       Maximum Pressure Error:  0.18E+04 on Mesh   1 at (  11   6   1)
       ScaRC: iterations    43, residual  0.62E-08, convergence rate   0.51E+00
       ---------------------------------------------------------------
       Mesh    1
       Max CFL number:  0.79E+00 at (  14,   9,  14)
       Max divergence:  0.14E+02 at (  15,  11,   1)
       Min divergence: -0.33E+01 at (  14,   9,  13)
       Max VN number:   0.28E+00 at (  12,   7,  16)
       No. of Lagrangian Particles:          5184
       Total Heat Release Rate:             95.351 kW
       Radiation Loss to Boundaries:       -26.217 kW
       Mesh    2
       Max CFL number:  0.54E-01 at (  16,  48,   9)
       Max divergence:  0.25E-03 at (   1,   4,   9)
       Min divergence: -0.78E-06 at (   4,  53,   6)
       Max VN number:   0.19E-01 at (  16,  49,  15)
       Radiation Loss to Boundaries:         0.039 kW
       Mesh    3
       Max CFL number:  0.62E-01 at (  49,   7,  16)
       Max divergence:  0.26E-04 at (  49,  10,  16)
       Min divergence: -0.17E-05 at (  24,   9,  13)
       Max VN number:   0.23E-01 at (  49,  16,  16)
       Mesh    4
       Max CFL number:  0.76E-01 at (   1,   3,  32)
       Max divergence:  0.48E-04 at (   1,  11,  33)
       Min divergence: -0.15E-06 at (   2,   9,  48)
       Max VN number:   0.33E-01 at (   1,   1,  33)
       Mesh    5
       Max CFL number:  0.60E-01 at (  64,  14,   1)
       Max divergence:  0.12E-04 at (  64,   9,   3)
       Min divergence: -0.13E-05 at (   7,  10,   2)
       Max VN number:   0.18E-01 at (  64,   1,   1)
 
       Time Step     100   June 26, 2020  16:18:09
       Step Size:    0.782E-02 s, Total Time:       1.52 s
       Pressure Iterations:      1
       Maximum Velocity Error:  0.20E-01 on Mesh   2 at (   0  17   8)
       Maximum Pressure Error:  0.22E+04 on Mesh   1 at (  15   8  12)
       ScaRC: iterations    43, residual  0.50E-08, convergence rate   0.51E+00
       ---------------------------------------------------------------
       Mesh    1
       Max CFL number:  0.83E+00 at (  14,   8,   9)
       Max divergence:  0.16E+02 at (  15,   6,   1)
       Min divergence: -0.40E+01 at (  14,   7,   5)
       Max VN number:   0.33E+00 at (  14,  16,  16)
       No. of Lagrangian Particles:          5472
       Total Heat Release Rate:            111.152 kW
       Radiation Loss to Boundaries:       -31.312 kW
       Mesh    2
       Max CFL number:  0.73E-01 at (  16,  49,   9)
       Max divergence:  0.25E-03 at (   1,  13,  10)
       Min divergence: -0.92E-06 at (  15,  62,  10)
       Max VN number:   0.27E-01 at (  16,  49,   1)
       Radiation Loss to Boundaries:         0.041 kW
       Mesh    3
       Max CFL number:  0.87E-01 at (  49,   7,  16)
       Max divergence:  0.35E-04 at (  49,  10,  16)
       Min divergence: -0.19E-05 at (  17,  12,  13)
       Max VN number:   0.35E-01 at (  49,  16,  16)
       Mesh    4
       Max CFL number:  0.89E-01 at (   1,   3,  33)
       Max divergence:  0.53E-04 at (   1,   9,  33)
       Min divergence: -0.11E-06 at (   2,   9,  48)
       Max VN number:   0.36E-01 at (   1,   1,  33)
       Mesh    5
       Max CFL number:  0.68E-01 at (  64,  14,   1)
       Max divergence:  0.13E-04 at (  64,   9,   3)
       Min divergence: -0.12E-05 at (   7,  10,   2)
       Max VN number:   0.21E-01 at (  64,   1,   1)
 
       Time Step     200   June 26, 2020  16:18:25
       Step Size:    0.747E-02 s, Total Time:       2.35 s
       Pressure Iterations:      1
       Maximum Velocity Error:  0.16E-01 on Mesh   3 at (  23  16  17)
       Maximum Pressure Error:  0.26E+04 on Mesh   1 at (  16   6   1)
       ScaRC: iterations    43, residual  0.77E-08, convergence rate   0.52E+00
       ---------------------------------------------------------------
       Mesh    1
       Max CFL number:  0.89E+00 at (  15,   8,  10)
       Max divergence:  0.25E+02 at (  14,   9,   6)
       Min divergence: -0.33E+01 at (  13,  10,   1)
       Max VN number:   0.25E+00 at (  13,   7,  16)
       No. of Lagrangian Particles:          8424
       Total Heat Release Rate:            161.784 kW
       Radiation Loss to Boundaries:       -46.857 kW
       Mesh    2
       Max CFL number:  0.10E+00 at (  16,  48,   9)
       Max divergence:  0.37E-03 at (   1,  13,  10)
       Min divergence: -0.26E-04 at (   2,  17,  16)
       Max VN number:   0.42E-01 at (  16,  48,   1)
       Radiation Loss to Boundaries:         0.066 kW
       Mesh    3
       Max CFL number:  0.11E+00 at (  49,  12,  16)
       Max divergence:  0.51E-04 at (  49,  10,  16)
       Min divergence: -0.46E-05 at (  45,   8,  16)
       Max VN number:   0.48E-01 at (  48,  16,  16)
       Mesh    4
       Max CFL number:  0.12E+00 at (   1,   8,  33)
       Max divergence:  0.75E-04 at (   1,   8,  33)
       Min divergence: -0.17E-04 at (   2,   9,  34)
       Max VN number:   0.53E-01 at (   1,  16,  32)
       Mesh    5
       Max CFL number:  0.11E+00 at (  64,   6,   1)
       Max divergence:  0.50E-04 at (  64,   8,   2)
       Min divergence: -0.44E-05 at (  64,   5,   1)
       Max VN number:   0.43E-01 at (  64,  16,   1)
 
       Time Step     300   June 26, 2020  16:18:42
       Step Size:    0.975E-02 s, Total Time:       3.21 s
       Pressure Iterations:      1
       Maximum Velocity Error:  0.21E-01 on Mesh   2 at (   0  17  16)
       Maximum Pressure Error:  0.21E+04 on Mesh   1 at (  11   9   6)
       ScaRC: iterations    45, residual  0.61E-08, convergence rate   0.52E+00
       ---------------------------------------------------------------
       Mesh    1
       Max CFL number:  0.84E+00 at (  14,   6,   7)
       Max divergence:  0.27E+02 at (  16,   7,   1)
       Min divergence: -0.40E+01 at (  14,   7,   1)
       Max VN number:   0.40E+00 at (  16,  16,  16)
       No. of Lagrangian Particles:          9276
       Total Heat Release Rate:            195.587 kW
       Radiation Loss to Boundaries:       -61.615 kW
       Mesh    2
       Max CFL number:  0.47E+00 at (   3,  11,  16)
       Max divergence:  0.62E+00 at (   9,   9,  16)
       Min divergence: -0.66E+00 at (   9,  10,  16)
       Max VN number:   0.15E+00 at (   8,   9,  16)
       No. of Lagrangian Particles:          2280
       Radiation Loss to Boundaries:        -0.240 kW
       Mesh    3
       Max CFL number:  0.90E-01 at (   1,   1,  16)
       Max divergence:  0.28E-04 at (  49,   1,  16)
       Min divergence: -0.51E-05 at (  45,   7,  16)
       Max VN number:   0.37E-01 at (  48,   1,  16)
       Mesh    4
       Max CFL number:  0.98E-01 at (   1,   1,  33)
       Max divergence:  0.45E-04 at (   1,  15,  32)
       Min divergence: -0.14E-04 at (   4,  16,  35)
       Max VN number:   0.43E-01 at (   1,   1,  33)
       Mesh    5
       Max CFL number:  0.83E-01 at (  64,   1,   1)
       Max divergence:  0.22E-04 at (  61,   8,   3)
       Min divergence: -0.49E-05 at (  57,   1,   2)
       Max VN number:   0.27E-01 at (  64,   1,   1)
 
       Time Step     400   June 26, 2020  16:19:05
       Step Size:    0.884E-02 s, Total Time:       4.10 s
       Pressure Iterations:      1
       Maximum Velocity Error:  0.28E-01 on Mesh   2 at (  17  20  16)
       Maximum Pressure Error:  0.14E+04 on Mesh   1 at (   9   9   1)
       ScaRC: iterations    45, residual  0.99E-08, convergence rate   0.53E+00
       ---------------------------------------------------------------
       Mesh    1
       Max CFL number:  0.98E+00 at (  12,  10,  11)
       Max divergence:  0.15E+02 at (  15,   9,   1)
       Min divergence: -0.26E+01 at (  11,   9,   4)
       Max VN number:   0.32E+00 at (  13,   7,  16)
       No. of Lagrangian Particles:          9824
       Total Heat Release Rate:            187.527 kW
       Radiation Loss to Boundaries:       -58.320 kW
       Mesh    2
       Max CFL number:  0.39E+00 at (   1,   2,  16)
       Max divergence:  0.48E+00 at (   4,   1,  16)
       Min divergence: -0.79E+00 at (   2,  16,  12)
       Max VN number:   0.19E+00 at (  16,  19,  16)
       No. of Lagrangian Particles:          4860
       Radiation Loss to Boundaries:        -0.541 kW
       Mesh    3
       Max CFL number:  0.79E-01 at (   1,   1,  12)
       Max divergence:  0.27E-04 at (  49,   6,  16)
       Min divergence: -0.40E-05 at (  45,  15,  16)
       Max VN number:   0.32E-01 at (  49,   4,  16)
       Mesh    4
       Max CFL number:  0.63E-01 at (   1,   5,   1)
       Max divergence:  0.30E-04 at (   1,   2,  33)
       Min divergence: -0.20E-04 at (   2,   7,  34)
       Max VN number:   0.32E-01 at (   2,   9,  34)
       Mesh    5
       Max CFL number:  0.55E-01 at (  64,   7,   1)
       Max divergence:  0.29E-04 at (  64,   7,   2)
       Min divergence: -0.61E-05 at (  53,   3,   2)
       Max VN number:   0.19E-01 at (  64,   7,   1)
 
       Time Step     500   June 26, 2020  16:19:35
       Step Size:    0.103E-01 s, Total Time:       5.04 s
       Pressure Iterations:      6
       Maximum Velocity Error:  0.31E-01 on Mesh   2 at (  17  47  16)
       Maximum Pressure Error:  0.33E+04 on Mesh   1 at (  12   7   1)
       ScaRC: iterations    45, residual  0.68E-08, convergence rate   0.54E+00
       ---------------------------------------------------------------
       Mesh    1
       Max CFL number:  0.85E+00 at (   6,   6,  11)
       Max divergence:  0.20E+02 at (  15,   8,   1)
       Min divergence: -0.48E+01 at (  12,   7,   7)
       Max VN number:   0.45E+00 at (  20,  16,  16)
       No. of Lagrangian Particles:         10798
       Total Heat Release Rate:            142.972 kW
       Radiation Loss to Boundaries:       -45.629 kW
       Mesh    2
       Max CFL number:  0.49E+00 at (   1,  16,  15)
       Max divergence:  0.54E+00 at (   1,  17,  14)
       Min divergence: -0.59E+00 at (   1,  16,  15)
       Max VN number:   0.18E+00 at (  16,  24,  16)
       No. of Lagrangian Particles:          6826
       Radiation Loss to Boundaries:        -1.578 kW
       Mesh    3
       Max CFL number:  0.24E+00 at (   1,   1,  15)
       Max divergence:  0.98E-01 at (   1,   4,  16)
       Min divergence: -0.26E+00 at (   1,   2,  16)
       Max VN number:   0.15E+00 at (   1,   1,  16)
       No. of Lagrangian Particles:            51
       Radiation Loss to Boundaries:        -0.001 kW
       Mesh    4
       Max CFL number:  0.21E+00 at (   1,   7,  33)
       Max divergence:  0.10E-03 at (   1,   2,  33)
       Min divergence:  0.82E-07 at (   3,   1,  48)
       Max VN number:   0.88E-01 at (   1,  16,  32)
       Mesh    5
       Max CFL number:  0.17E+00 at (  64,   5,   1)
       Max divergence:  0.56E-04 at (  64,   2,   2)
       Min divergence: -0.66E-05 at (  55,  16,   5)
       Max VN number:   0.62E-01 at (  64,   1,   1)
 
       Time Step     600   June 26, 2020  16:20:25
       Step Size:    0.101E-01 s, Total Time:       5.98 s
       Pressure Iterations:      7
       Maximum Velocity Error:  0.31E-01 on Mesh   2 at (  17  38  16)
       Maximum Pressure Error:  0.44E+04 on Mesh   1 at (  11  11   1)
       ScaRC: iterations    45, residual  0.50E-08, convergence rate   0.54E+00
       ---------------------------------------------------------------
       Mesh    1
       Max CFL number:  0.92E+00 at (   5,   9,  13)
       Max divergence:  0.19E+02 at (   8,  10,   1)
       Min divergence: -0.32E+01 at (  10,   8,  11)
       Max VN number:   0.35E+00 at (   3,   7,  16)
       No. of Lagrangian Particles:         11786
       Total Heat Release Rate:            141.754 kW
       Radiation Loss to Boundaries:       -44.055 kW
       Mesh    2
       Max CFL number:  0.46E+00 at (  16,  49,  16)
       Max divergence:  0.58E+00 at (  16,  41,  12)
       Min divergence: -0.49E+00 at (  16,  41,  13)
       Max VN number:   0.16E+00 at (  15,  49,  16)
       No. of Lagrangian Particles:          8769
       Radiation Loss to Boundaries:        -2.657 kW
       Mesh    3
       Max CFL number:  0.31E+00 at (   1,   5,  16)
       Max divergence:  0.38E+00 at (   1,   1,  14)
       Min divergence: -0.35E+00 at (   1,   1,  16)
       Max VN number:   0.15E+00 at (   1,   1,  16)
       No. of Lagrangian Particles:           394
       Radiation Loss to Boundaries:        -0.014 kW
       Mesh    4
       Max CFL number:  0.16E+00 at (   1,   8,  33)
       Max divergence:  0.79E-04 at (   1,  15,  33)
       Min divergence: -0.34E-06 at (  10,  16,  39)
       Max VN number:   0.72E-01 at (   1,  16,  33)
       Mesh    5
       Max CFL number:  0.13E+00 at (  64,  15,   1)
       Max divergence:  0.37E-04 at (  64,  15,   2)
       Min divergence: -0.96E-05 at (  53,  14,   4)
       Max VN number:   0.48E-01 at (  64,   1,   1)
 
       Time Step     700   June 26, 2020  16:21:22
       Step Size:    0.109E-01 s, Total Time:       6.91 s
       Pressure Iterations:     10
       Maximum Velocity Error:  0.35E-01 on Mesh   2 at (  17  25  16)
       Maximum Pressure Error:  0.22E+04 on Mesh   1 at (  12   7   1)
       ScaRC: iterations    45, residual  0.43E-08, convergence rate   0.54E+00
       ---------------------------------------------------------------
       Mesh    1
       Max CFL number:  0.93E+00 at (   9,   9,   9)
       Max divergence:  0.29E+02 at (  15,  10,   1)
       Min divergence: -0.59E+01 at (  10,   7,   3)
       Max VN number:   0.36E+00 at (   1,  11,  16)
       No. of Lagrangian Particles:         13143
       Total Heat Release Rate:            141.400 kW
       Radiation Loss to Boundaries:       -45.427 kW
       Mesh    2
       Max CFL number:  0.44E+00 at (  16,  49,  15)
       Max divergence:  0.95E+00 at (  13,  27,  11)
       Min divergence: -0.88E+00 at (  16,  32,  12)
       Max VN number:   0.17E+00 at (  16,  32,  12)
       No. of Lagrangian Particles:         10226
       Radiation Loss to Boundaries:        -3.330 kW
       Mesh    3
       Max CFL number:  0.32E+00 at (   1,   4,  15)
       Max divergence:  0.39E+00 at (   1,   1,  13)
       Min divergence: -0.40E+00 at (   1,   1,  15)
       Max VN number:   0.12E+00 at (  11,  16,  16)
       No. of Lagrangian Particles:           858
       Radiation Loss to Boundaries:        -0.031 kW
       Mesh    4
       Max CFL number:  0.18E+00 at (   1,  10,  33)
       Max divergence:  0.78E-04 at (   1,  15,  33)
       Min divergence: -0.29E-05 at (  10,   1,  39)
       Max VN number:   0.72E-01 at (   1,  16,  33)
       Mesh    5
       Max CFL number:  0.13E+00 at (  64,  13,   1)
       Max divergence:  0.36E-04 at (  64,   2,   2)
       Min divergence: -0.89E-05 at (  49,   3,   4)
       Max VN number:   0.46E-01 at (  64,   1,   1)
 
       Time Step     800   June 26, 2020  16:22:27
       Step Size:    0.918E-02 s, Total Time:       7.90 s
       Pressure Iterations:      6
       Maximum Velocity Error:  0.28E-01 on Mesh   2 at (  17  43  16)
       Maximum Pressure Error:  0.20E+04 on Mesh   1 at (   9   9   1)
       ScaRC: iterations    43, residual  0.80E-08, convergence rate   0.54E+00
       ---------------------------------------------------------------
       Mesh    1
       Max CFL number:  0.80E+00 at (   7,  10,   9)
       Max divergence:  0.24E+02 at (   7,   7,   1)
       Min divergence: -0.38E+01 at (   7,   8,   9)
       Max VN number:   0.31E+00 at (   3,   9,  16)
       No. of Lagrangian Particles:         14502
       Total Heat Release Rate:            183.927 kW
       Radiation Loss to Boundaries:       -60.383 kW
       Mesh    2
       Max CFL number:  0.39E+00 at (  15,  38,  12)
       Max divergence:  0.76E+00 at (   6,  28,  13)
       Min divergence: -0.49E+00 at (   1,  16,  15)
       Max VN number:   0.15E+00 at (  16,  40,  10)
       No. of Lagrangian Particles:         11735
       Radiation Loss to Boundaries:        -4.036 kW
       Mesh    3
       Max CFL number:  0.20E+00 at (  11,  13,  16)
       Max divergence:  0.21E+00 at (   1,   1,  15)
       Min divergence: -0.19E+00 at (   4,  12,  16)
       Max VN number:   0.95E-01 at (   9,  16,  16)
       No. of Lagrangian Particles:          1485
       Radiation Loss to Boundaries:        -0.073 kW
       Mesh    4
       Max CFL number:  0.12E+00 at (   1,  11,  33)
       Max divergence:  0.63E-04 at (   1,   3,  33)
       Min divergence: -0.72E-05 at (   1,  12,   6)
       Max VN number:   0.46E-01 at (   1,  16,  32)
       Mesh    5
       Max CFL number:  0.83E-01 at (  64,  13,   1)
       Max divergence:  0.33E-04 at (  64,   2,   2)
       Min divergence: -0.85E-05 at (  55,  16,   2)
       Max VN number:   0.26E-01 at (  64,  16,   1)
 
       Time Step     900   June 26, 2020  16:23:28
       Step Size:    0.891E-02 s, Total Time:       8.88 s
       Pressure Iterations:      6
       Maximum Velocity Error:  0.29E-01 on Mesh   2 at (  17  14  10)
       Maximum Pressure Error:  0.19E+04 on Mesh   1 at (  10   7   1)
       ScaRC: iterations    43, residual  0.86E-08, convergence rate   0.54E+00
       ---------------------------------------------------------------
       Mesh    1
       Max CFL number:  0.76E+00 at (   7,   7,  14)
       Max divergence:  0.18E+02 at (  14,   6,   1)
       Min divergence: -0.40E+01 at (   9,  10,   5)
       Max VN number:   0.23E+00 at (   7,   7,  14)
       No. of Lagrangian Particles:         15384
       Total Heat Release Rate:            136.941 kW
       Radiation Loss to Boundaries:       -47.420 kW
       Mesh    2
       Max CFL number:  0.36E+00 at (  16,  51,  16)
       Max divergence:  0.45E+00 at (  16,  50,  15)
       Min divergence: -0.50E+00 at (  16,  49,   8)
       Max VN number:   0.13E+00 at (  16,  50,  16)
       No. of Lagrangian Particles:         12935
       Radiation Loss to Boundaries:        -4.679 kW
       Mesh    3
       Max CFL number:  0.29E+00 at (   1,   5,  16)
       Max divergence:  0.23E+00 at (   1,   1,  15)
       Min divergence: -0.24E+00 at (   4,   2,  16)
       Max VN number:   0.15E+00 at (   1,   2,  16)
       No. of Lagrangian Particles:          2880
       Radiation Loss to Boundaries:        -0.271 kW
       Mesh    4
       Max CFL number:  0.83E-01 at (   1,  12,  33)
       Max divergence:  0.46E-04 at (   1,  14,  33)
       Min divergence: -0.16E-04 at (   1,   6,   6)
       Max VN number:   0.31E-01 at (   1,  12,  33)
       Mesh    5
       Max CFL number:  0.59E-01 at (  64,  14,   1)
       Max divergence:  0.33E-04 at (  62,   9,   2)
       Min divergence: -0.12E-04 at (  55,  16,   4)
       Max VN number:   0.16E-01 at (  64,   9,   1)
 
       Time Step    1000   June 26, 2020  16:24:28
       Step Size:    0.115E-01 s, Total Time:       9.97 s
       Pressure Iterations:      6
       Maximum Velocity Error:  0.27E-01 on Mesh   3 at (   3   7  17)
       Maximum Pressure Error:  0.22E+04 on Mesh   1 at (  13   8   1)
       ScaRC: iterations    45, residual  0.40E-08, convergence rate   0.54E+00
       ---------------------------------------------------------------
       Mesh    1
       Max CFL number:  0.84E+00 at (   4,   7,  13)
       Max divergence:  0.23E+02 at (   8,  11,   1)
       Min divergence: -0.39E+01 at (   8,  10,   3)
       Max VN number:   0.27E+00 at (   4,   8,  14)
       No. of Lagrangian Particles:         15953
       Total Heat Release Rate:            133.743 kW
       Radiation Loss to Boundaries:       -45.250 kW
       Mesh    2
       Max CFL number:  0.40E+00 at (   3,  16,  13)
       Max divergence:  0.56E+00 at (   1,  17,  16)
       Min divergence: -0.40E+00 at (  15,  16,   7)
       Max VN number:   0.15E+00 at (   4,  15,  15)
       No. of Lagrangian Particles:         14508
       Radiation Loss to Boundaries:        -4.886 kW
       Mesh    3
       Max CFL number:  0.34E+00 at (  27,   9,  14)
       Max divergence:  0.31E+00 at (   7,  16,   8)
       Min divergence: -0.30E+00 at (   7,  15,   9)
       Max VN number:   0.14E+00 at (   7,  16,  16)
       No. of Lagrangian Particles:          4613
       Radiation Loss to Boundaries:        -0.560 kW
       Mesh    4
       Max CFL number:  0.14E+00 at (   1,  11,  33)
       Max divergence:  0.15E-03 at (   1,  16,   1)
       Min divergence: -0.13E-04 at (   1,   6,   7)
       Max VN number:   0.52E-01 at (   1,  16,  33)
       Mesh    5
       Max CFL number:  0.10E+00 at (  64,  15,   1)
       Max divergence:  0.38E-04 at (  63,   5,   4)
       Min divergence: -0.13E-04 at (  57,   1,   7)
       Max VN number:   0.30E-01 at (  64,  16,   1)
 
       Time Step    1100   June 26, 2020  16:25:27
       Step Size:    0.106E-01 s, Total Time:      11.11 s
       Pressure Iterations:      5
       Maximum Velocity Error:  0.29E-01 on Mesh   2 at (   0  18   1)
       Maximum Pressure Error:  0.30E+04 on Mesh   1 at (  12   7   1)
       ScaRC: iterations    44, residual  0.90E-08, convergence rate   0.55E+00
       ---------------------------------------------------------------
       Mesh    1
       Max CFL number:  0.93E+00 at (   4,   8,   7)
       Max divergence:  0.36E+02 at (   3,   9,   1)
       Min divergence: -0.26E+01 at (   2,   9,  13)
       Max VN number:   0.31E+00 at (   5,   9,  16)
       No. of Lagrangian Particles:         15768
       Total Heat Release Rate:            206.388 kW
       Radiation Loss to Boundaries:       -72.788 kW
       Mesh    2
       Max CFL number:  0.48E+00 at (   2,  16,  16)
       Max divergence:  0.66E+00 at (   1,  17,  16)
       Min divergence: -0.65E+00 at (   1,  16,  16)
       Max VN number:   0.20E+00 at (  16,  48,  16)
       No. of Lagrangian Particles:         13621
       Radiation Loss to Boundaries:        -5.486 kW
       Mesh    3
       Max CFL number:  0.37E+00 at (   1,   1,  16)
       Max divergence:  0.35E+00 at (  29,  16,  12)
       Min divergence: -0.29E+00 at (  21,  16,  12)
       Max VN number:   0.15E+00 at (   1,   1,  15)
       No. of Lagrangian Particles:          5484
       Radiation Loss to Boundaries:        -0.939 kW
       Mesh    4
       Max CFL number:  0.23E+00 at (   4,  10,   1)
       Max divergence:  0.18E+00 at (   1,  12,   2)
       Min divergence: -0.14E+00 at (   2,  16,   1)
       Max VN number:   0.13E+00 at (   1,  15,   1)
       No. of Lagrangian Particles:           298
       Radiation Loss to Boundaries:        -0.016 kW
       Mesh    5
       Max CFL number:  0.55E-01 at (  63,   9,   3)
       Max divergence:  0.31E-04 at (  63,  14,   3)
       Min divergence: -0.16E-04 at (  56,  16,   4)
       Max VN number:   0.13E-01 at (  64,  15,   1)
 
       Time Step    1200   June 26, 2020  16:26:24
       Step Size:    0.103E-01 s, Total Time:      12.18 s
       Pressure Iterations:      6
       Maximum Velocity Error:  0.31E-01 on Mesh   2 at (  17  10   1)
       Maximum Pressure Error:  0.22E+04 on Mesh   1 at (  13  11   1)
       ScaRC: iterations    44, residual  0.66E-08, convergence rate   0.55E+00
       ---------------------------------------------------------------
       Mesh    1
       Max CFL number:  0.93E+00 at (   4,  11,   9)
       Max divergence:  0.19E+02 at (   4,   7,   1)
       Min divergence: -0.29E+01 at (  13,   8,   1)
       Max VN number:   0.26E+00 at (  18,  16,  16)
       No. of Lagrangian Particles:         14977
       Total Heat Release Rate:            134.228 kW
       Radiation Loss to Boundaries:       -47.940 kW
       Mesh    2
       Max CFL number:  0.36E+00 at (   2,  16,  15)
       Max divergence:  0.49E+00 at (   1,  17,  14)
       Min divergence: -0.35E+00 at (   1,  41,   6)
       Max VN number:   0.13E+00 at (  16,  48,  16)
       No. of Lagrangian Particles:         14155
       Radiation Loss to Boundaries:        -6.861 kW
       Mesh    3
       Max CFL number:  0.38E+00 at (  49,  15,  16)
       Max divergence:  0.26E+00 at (   5,  13,   7)
       Min divergence: -0.42E+00 at (   8,  15,   7)
       Max VN number:   0.15E+00 at (  49,  15,  16)
       No. of Lagrangian Particles:          5294
       Radiation Loss to Boundaries:        -1.237 kW
       Mesh    4
       Max CFL number:  0.28E+00 at (   5,   2,   1)
       Max divergence:  0.30E+00 at (   1,  14,   3)
       Min divergence: -0.20E+00 at (   1,   7,   1)
       Max VN number:   0.13E+00 at (   1,  16,   1)
       No. of Lagrangian Particles:          1014
       Radiation Loss to Boundaries:        -0.080 kW
       Mesh    5
       Max CFL number:  0.62E-01 at (  59,   5,   1)
       Max divergence:  0.37E-04 at (  64,   5,   3)
       Min divergence: -0.16E-04 at (  54,  16,   3)
       Max VN number:   0.16E-01 at (  61,  12,   1)
 
       Time Step    1300   June 26, 2020  16:27:21
       Step Size:    0.113E-01 s, Total Time:      13.23 s
       Pressure Iterations:      5
       Maximum Velocity Error:  0.26E-01 on Mesh   2 at (  17  20  10)
       Maximum Pressure Error:  0.26E+04 on Mesh   1 at (  13   7   1)
       ScaRC: iterations    45, residual  0.67E-08, convergence rate   0.55E+00
       ---------------------------------------------------------------
       Mesh    1
       Max CFL number:  0.91E+00 at (   8,  11,   6)
       Max divergence:  0.16E+02 at (   8,   8,   2)
       Min divergence: -0.25E+01 at (   4,  12,   8)
       Max VN number:   0.31E+00 at (   5,   4,  16)
       No. of Lagrangian Particles:         14981
       Total Heat Release Rate:            166.666 kW
       Radiation Loss to Boundaries:       -60.546 kW
       Mesh    2
       Max CFL number:  0.48E+00 at (  16,  49,  16)
       Max divergence:  0.48E+00 at (  16,  46,  11)
       Min divergence: -0.60E+00 at (  16,  49,  14)
       Max VN number:   0.17E+00 at (  16,  48,  16)
       No. of Lagrangian Particles:         14370
       Radiation Loss to Boundaries:        -7.559 kW
       Mesh    3
       Max CFL number:  0.49E+00 at (  49,  15,  16)
       Max divergence:  0.28E+00 at (  10,  15,  16)
       Min divergence: -0.39E+00 at (  49,  11,  16)
       Max VN number:   0.20E+00 at (  49,  16,  16)
       No. of Lagrangian Particles:          4947
       Radiation Loss to Boundaries:        -1.464 kW
       Mesh    4
       Max CFL number:  0.38E+00 at (   5,  14,   1)
       Max divergence:  0.45E+00 at (   1,  13,   1)
       Min divergence: -0.43E+00 at (   3,   8,   5)
       Max VN number:   0.19E+00 at (   1,  15,   1)
       No. of Lagrangian Particles:          1352
       Radiation Loss to Boundaries:        -0.170 kW
       Mesh    5
       Max CFL number:  0.69E-01 at (  59,  12,   1)
       Max divergence:  0.28E-04 at (  61,   8,   5)
       Min divergence: -0.19E-04 at (  56,   1,   3)
       Max VN number:   0.17E-01 at (  62,  14,   2)
 
       Time Step    1400   June 26, 2020  16:28:16
       Step Size:    0.116E-01 s, Total Time:      14.39 s
       Pressure Iterations:      6
       Maximum Velocity Error:  0.28E-01 on Mesh   2 at (  17   6   1)
       Maximum Pressure Error:  0.24E+04 on Mesh   1 at (   8   7   3)
       ScaRC: iterations    45, residual  0.58E-08, convergence rate   0.55E+00
       ---------------------------------------------------------------
       Mesh    1
       Max CFL number:  0.99E+00 at (   3,  10,  12)
       Max divergence:  0.25E+02 at (   7,  10,   1)
       Min divergence: -0.53E+01 at (   8,   7,   3)
       Max VN number:   0.27E+00 at (   5,  11,  16)
       No. of Lagrangian Particles:         15736
       Total Heat Release Rate:            146.559 kW
       Radiation Loss to Boundaries:       -50.535 kW
       Mesh    2
       Max CFL number:  0.48E+00 at (  16,  49,  16)
       Max divergence:  0.49E+00 at (  16,  27,   8)
       Min divergence: -0.67E+00 at (  15,  25,   6)
       Max VN number:   0.17E+00 at (  15,  49,  16)
       No. of Lagrangian Particles:         14445
       Radiation Loss to Boundaries:        -7.714 kW
       Mesh    3
       Max CFL number:  0.36E+00 at (   2,   6,  15)
       Max divergence:  0.37E+00 at (  55,   1,  16)
       Min divergence: -0.35E+00 at (  55,  11,  16)
       Max VN number:   0.16E+00 at (   1,   1,  16)
       No. of Lagrangian Particles:          4343
       Radiation Loss to Boundaries:        -1.684 kW
       Mesh    4
       Max CFL number:  0.45E+00 at (  11,  16,  11)
       Max divergence:  0.40E+00 at (   1,   4,   1)
       Min divergence: -0.37E+00 at (   4,  12,   1)
       Max VN number:   0.18E+00 at (   9,  16,  11)
       No. of Lagrangian Particles:          1105
       Radiation Loss to Boundaries:        -0.245 kW
       Mesh    5
       Max CFL number:  0.69E-01 at (  64,  15,   8)
       Max divergence:  0.56E-02 at (  64,  13,   1)
       Min divergence: -0.40E-02 at (  64,  14,   7)
       Max VN number:   0.20E-01 at (  58,  16,   1)
 
       Time Step    1500   June 26, 2020  16:29:04
       Step Size:    0.114E-01 s, Total Time:      15.47 s
       Pressure Iterations:      5
       Maximum Velocity Error:  0.23E-01 on Mesh   2 at (  17   6   8)
       Maximum Pressure Error:  0.25E+04 on Mesh   1 at (  14  11   1)
       ScaRC: iterations    43, residual  0.52E-08, convergence rate   0.54E+00
       ---------------------------------------------------------------
       Mesh    1
       Max CFL number:  0.87E+00 at (   4,   9,   8)
       Max divergence:  0.18E+02 at (  10,  11,   1)
       Min divergence: -0.40E+01 at (   4,  12,   8)
       Max VN number:   0.30E+00 at (   9,   1,  16)
       No. of Lagrangian Particles:         15638
       Total Heat Release Rate:            168.518 kW
       Radiation Loss to Boundaries:       -62.980 kW
       Mesh    2
       Max CFL number:  0.46E+00 at (  16,  49,  15)
       Max divergence:  0.53E+00 at (   1,  17,  11)
       Min divergence: -0.38E+00 at (   4,   1,  11)
       Max VN number:   0.15E+00 at (  16,  49,  16)
       No. of Lagrangian Particles:         15081
       Radiation Loss to Boundaries:        -7.665 kW
       Mesh    3
       Max CFL number:  0.38E+00 at (   2,   6,  16)
       Max divergence:  0.29E+00 at (   7,  10,   9)
       Min divergence: -0.29E+00 at (  56,   4,  16)
       Max VN number:   0.14E+00 at (   1,   1,  15)
       No. of Lagrangian Particles:          4130
       Radiation Loss to Boundaries:        -2.019 kW
       Mesh    4
       Max CFL number:  0.44E+00 at (  14,   5,  14)
       Max divergence:  0.31E+00 at (   1,   4,   1)
       Min divergence: -0.28E+00 at (   5,   4,   1)
       Max VN number:   0.19E+00 at (  10,  16,  11)
       No. of Lagrangian Particles:           801
       Radiation Loss to Boundaries:        -0.320 kW
       Mesh    5
       Max CFL number:  0.18E+00 at (  63,  10,  10)
       Max divergence:  0.13E-01 at (  64,  15,   6)
       Min divergence: -0.16E-01 at (  63,  16,   7)
       Max VN number:   0.55E-01 at (  63,  14,  16)
       No. of Lagrangian Particles:             4
       Radiation Loss to Boundaries:        -0.002 kW
 
       Time Step    1600   June 26, 2020  16:29:50
       Step Size:    0.104E-01 s, Total Time:      16.52 s
       Pressure Iterations:      4
       Maximum Velocity Error:  0.27E-01 on Mesh   2 at (  17   4   1)
       Maximum Pressure Error:  0.24E+04 on Mesh   1 at (  13  10   1)
       ScaRC: iterations    45, residual  0.93E-08, convergence rate   0.53E+00
       ---------------------------------------------------------------
       Mesh    1
       Max CFL number:  0.98E+00 at (   5,   7,  13)
       Max divergence:  0.21E+02 at (   9,  10,   1)
       Min divergence: -0.41E+01 at (   4,   7,  14)
       Max VN number:   0.31E+00 at (   4,   6,  16)
       No. of Lagrangian Particles:         15195
       Total Heat Release Rate:            149.138 kW
       Radiation Loss to Boundaries:       -55.127 kW
       Mesh    2
       Max CFL number:  0.44E+00 at (   1,  16,  15)
       Max divergence:  0.55E+00 at (   1,  17,  13)
       Min divergence: -0.43E+00 at (   5,  17,  16)
       Max VN number:   0.17E+00 at (  16,  48,  16)
       No. of Lagrangian Particles:         15428
       Radiation Loss to Boundaries:        -8.266 kW
       Mesh    3
       Max CFL number:  0.31E+00 at (  22,  15,  12)
       Max divergence:  0.47E+00 at (  52,  16,  16)
       Min divergence: -0.31E+00 at (  13,  15,   8)
       Max VN number:   0.13E+00 at (   1,   1,  16)
       No. of Lagrangian Particles:          4357
       Radiation Loss to Boundaries:        -2.327 kW
       Mesh    4
       Max CFL number:  0.45E+00 at (  14,   3,  13)
       Max divergence:  0.53E+00 at (   1,  10,   1)
       Min divergence: -0.47E+00 at (   5,  14,   4)
       Max VN number:   0.15E+00 at (  16,   1,  19)
       No. of Lagrangian Particles:           672
       Radiation Loss to Boundaries:        -0.362 kW
       Mesh    5
       Max CFL number:  0.22E+00 at (  64,  10,   1)
       Max divergence:  0.79E-01 at (  58,  10,  16)
       Min divergence: -0.58E-01 at (  60,   9,  16)
       Max VN number:   0.15E+00 at (  61,  10,  16)
       No. of Lagrangian Particles:            15
       Radiation Loss to Boundaries:        -0.011 kW
 
       Time Step    1700   June 26, 2020  16:30:36
       Step Size:    0.985E-02 s, Total Time:      17.63 s
       Pressure Iterations:      4
       Maximum Velocity Error:  0.27E-01 on Mesh   2 at (  17  34  10)
       Maximum Pressure Error:  0.49E+04 on Mesh   1 at (  13  10   1)
       ScaRC: iterations    45, residual  0.89E-08, convergence rate   0.55E+00
       ---------------------------------------------------------------
       Mesh    1
       Max CFL number:  0.93E+00 at (   4,   8,  10)
       Max divergence:  0.23E+02 at (   5,   7,   1)
       Min divergence: -0.32E+01 at (   9,   9,   5)
       Max VN number:   0.25E+00 at (   2,   6,  15)
       No. of Lagrangian Particles:         15593
       Total Heat Release Rate:            166.291 kW
       Radiation Loss to Boundaries:       -63.142 kW
       Mesh    2
       Max CFL number:  0.41E+00 at (  16,  48,  15)
       Max divergence:  0.52E+00 at (  15,  24,   7)
       Min divergence: -0.54E+00 at (  16,  49,  13)
       Max VN number:   0.17E+00 at (  16,  22,  16)
       No. of Lagrangian Particles:         15032
       Radiation Loss to Boundaries:        -8.613 kW
       Mesh    3
       Max CFL number:  0.33E+00 at (  51,   8,  16)
       Max divergence:  0.51E+00 at (   1,   1,  13)
       Min divergence: -0.39E+00 at (   1,   1,  14)
       Max VN number:   0.16E+00 at (   1,   1,  16)
       No. of Lagrangian Particles:          4490
       Radiation Loss to Boundaries:        -2.564 kW
       Mesh    4
       Max CFL number:  0.39E+00 at (  11,   8,  20)
       Max divergence:  0.39E+00 at (   5,  16,   1)
       Min divergence: -0.42E+00 at (   7,   8,   4)
       Max VN number:   0.18E+00 at (  15,  16,  30)
       No. of Lagrangian Particles:           556
       Radiation Loss to Boundaries:        -0.410 kW
       Mesh    5
       Max CFL number:  0.24E+00 at (  64,   8,   9)
       Max divergence:  0.76E-01 at (  62,  10,   9)
       Min divergence: -0.89E-01 at (  64,   1,  10)
       Max VN number:   0.87E-01 at (  64,  16,   1)
       No. of Lagrangian Particles:             9
       Radiation Loss to Boundaries:        -0.028 kW
 
       Time Step    1800   June 26, 2020  16:31:22
       Step Size:    0.112E-01 s, Total Time:      18.74 s
       Pressure Iterations:      4
       Maximum Velocity Error:  0.28E-01 on Mesh   2 at (  17   5   1)
       Maximum Pressure Error:  0.18E+04 on Mesh   1 at (   9   7   1)
       ScaRC: iterations    46, residual  0.56E-08, convergence rate   0.53E+00
       ---------------------------------------------------------------
       Mesh    1
       Max CFL number:  0.89E+00 at (   3,  11,  10)
       Max divergence:  0.23E+02 at (   7,  10,   1)
       Min divergence: -0.28E+01 at (  14,  10,   1)
       Max VN number:   0.29E+00 at (   7,   1,  16)
       No. of Lagrangian Particles:         15585
       Total Heat Release Rate:            141.866 kW
       Radiation Loss to Boundaries:       -54.322 kW
       Mesh    2
       Max CFL number:  0.45E+00 at (  16,  48,  16)
       Max divergence:  0.39E+00 at (   1,  17,  14)
       Min divergence: -0.44E+00 at (  16,  26,   9)
       Max VN number:   0.16E+00 at (  16,  48,  16)
       No. of Lagrangian Particles:         14196
       Radiation Loss to Boundaries:        -8.585 kW
       Mesh    3
       Max CFL number:  0.37E+00 at (   1,   5,  15)
       Max divergence:  0.40E+00 at (   1,   1,  14)
       Min divergence: -0.42E+00 at (  53,  15,  16)
       Max VN number:   0.18E+00 at (   1,   1,  16)
       No. of Lagrangian Particles:          5185
       Radiation Loss to Boundaries:        -2.874 kW
       Mesh    4
       Max CFL number:  0.43E+00 at (   5,   5,   6)
       Max divergence:  0.35E+00 at (   1,  13,   1)
       Min divergence: -0.47E+00 at (   5,   5,   6)
       Max VN number:   0.20E+00 at (   5,   5,   6)
       No. of Lagrangian Particles:           571
       Radiation Loss to Boundaries:        -0.476 kW
       Mesh    5
       Max CFL number:  0.34E+00 at (  55,   1,  16)
       Max divergence:  0.76E-01 at (  52,   1,  16)
       Min divergence: -0.64E-01 at (  64,  16,   2)
       Max VN number:   0.13E+00 at (  58,  16,  16)
       No. of Lagrangian Particles:             9
       Radiation Loss to Boundaries:        -0.055 kW
 
       Time Step    1900   June 26, 2020  16:32:09
       Step Size:    0.116E-01 s, Total Time:      19.84 s
       Pressure Iterations:      4
       Maximum Velocity Error:  0.24E-01 on Mesh   2 at (   0  18   1)
[...]
       Min divergence: -0.28E+00 at (   9,   5,  23)
       Max VN number:   0.13E+00 at (  16,   9,  22)
       No. of Lagrangian Particles:           219
       Radiation Loss to Boundaries:        -0.862 kW
       Mesh    5
       Max CFL number:  0.18E+00 at (   1,   2,  16)
       Max divergence:  0.85E-01 at (   1,  12,  12)
       Min divergence: -0.41E-01 at (   1,   1,   8)
       Max VN number:   0.65E-01 at (   1,   1,  16)
       Radiation Loss to Boundaries:        -0.446 kW
 
       Time Step    4700   June 26, 2020  16:48:16
       Step Size:    0.105E-01 s, Total Time:      51.46 s
       Pressure Iterations:      3
       Maximum Velocity Error:  0.18E-01 on Mesh   2 at (  17  17   1)
       Maximum Pressure Error:  0.26E+04 on Mesh   1 at (   1   1  16)
       ScaRC: iterations    44, residual  0.88E-08, convergence rate   0.55E+00
       ---------------------------------------------------------------
       Mesh    1
       Max CFL number:  0.83E+00 at (   3,   6,  13)
       Max divergence:  0.17E+02 at (   6,   5,   1)
       Min divergence: -0.22E+01 at (  13,   6,   1)
       Max VN number:   0.23E+00 at (   2,   6,  10)
       No. of Lagrangian Particles:         14606
       Total Heat Release Rate:            165.268 kW
       Radiation Loss to Boundaries:       -74.384 kW
       Mesh    2
       Max CFL number:  0.38E+00 at (  15,  28,  11)
       Max divergence:  0.67E+00 at (  16,  42,   9)
       Min divergence: -0.55E+00 at (  13,  19,   7)
       Max VN number:   0.16E+00 at (  16,  23,  16)
       No. of Lagrangian Particles:         17230
       Radiation Loss to Boundaries:       -13.843 kW
       Mesh    3
       Max CFL number:  0.25E+00 at (  54,  13,  13)
       Max divergence:  0.64E+00 at (  56,   1,  13)
       Min divergence: -0.36E+00 at (  49,   2,  16)
       Max VN number:   0.11E+00 at (  58,  16,  10)
       No. of Lagrangian Particles:          3039
       Radiation Loss to Boundaries:        -4.948 kW
       Mesh    4
       Max CFL number:  0.29E+00 at (  12,   5,  20)
       Max divergence:  0.33E+00 at (   1,   6,   1)
       Min divergence: -0.21E+00 at (   2,   3,   2)
       Max VN number:   0.16E+00 at (  16,  15,  27)
       No. of Lagrangian Particles:           196
       Radiation Loss to Boundaries:        -0.942 kW
       Mesh    5
       Max CFL number:  0.18E+00 at (   1,   5,  16)
       Max divergence:  0.45E-01 at (   1,   5,  12)
       Min divergence: -0.71E-01 at (   2,  15,   8)
       Max VN number:   0.59E-01 at (   1,  16,  16)
       Radiation Loss to Boundaries:        -0.425 kW
 
       Time Step    4800   June 26, 2020  16:48:48
       Step Size:    0.118E-01 s, Total Time:      52.68 s
       Pressure Iterations:      3
       Maximum Velocity Error:  0.22E-01 on Mesh   2 at (  17   4   1)
       Maximum Pressure Error:  0.23E+04 on Mesh   1 at (   1  12   2)
       ScaRC: iterations    44, residual  0.91E-08, convergence rate   0.55E+00
       ---------------------------------------------------------------
       Mesh    1
       Max CFL number:  0.82E+00 at (   2,   5,  13)
       Max divergence:  0.23E+02 at (   1,  11,   1)
       Min divergence: -0.40E+01 at (  15,   7,   1)
       Max VN number:   0.24E+00 at (   1,   5,  12)
       No. of Lagrangian Particles:         15596
       Total Heat Release Rate:            148.290 kW
       Radiation Loss to Boundaries:       -67.240 kW
       Mesh    2
       Max CFL number:  0.40E+00 at (   1,  15,  11)
       Max divergence:  0.51E+00 at (  16,   3,   3)
       Min divergence: -0.47E+00 at (   1,  16,  10)
       Max VN number:   0.13E+00 at (  16,  28,  11)
       No. of Lagrangian Particles:         16096
       Radiation Loss to Boundaries:       -12.998 kW
       Mesh    3
       Max CFL number:  0.35E+00 at (   1,   8,  15)
       Max divergence:  0.36E+00 at (  56,  16,  16)
       Min divergence: -0.34E+00 at (  56,  15,  16)
       Max VN number:   0.14E+00 at (  56,   1,   6)
       No. of Lagrangian Particles:          3290
       Radiation Loss to Boundaries:        -5.001 kW
       Mesh    4
       Max CFL number:  0.40E+00 at (  11,   1,  13)
       Max divergence:  0.39E+00 at (  16,  11,  29)
       Min divergence: -0.39E+00 at (  16,  10,  28)
       Max VN number:   0.18E+00 at (  16,  10,  29)
       No. of Lagrangian Particles:           133
       Radiation Loss to Boundaries:        -0.968 kW
       Mesh    5
       Max CFL number:  0.23E+00 at (  62,  13,  16)
       Max divergence:  0.60E-01 at (   1,   3,  10)
       Min divergence: -0.38E-01 at (  64,  16,  13)
       Max VN number:   0.11E+00 at (  64,  11,  16)
       Radiation Loss to Boundaries:        -0.394 kW
 
       Time Step    4900   June 26, 2020  16:49:16
       Step Size:    0.107E-01 s, Total Time:      53.86 s
       Pressure Iterations:      2
       Maximum Velocity Error:  0.28E-01 on Mesh   2 at (  17   3  15)
       Maximum Pressure Error:  0.12E+04 on Mesh   1 at (  14  12   1)
       ScaRC: iterations    45, residual  0.95E-08, convergence rate   0.54E+00
       ---------------------------------------------------------------
       Mesh    1
       Max CFL number:  0.86E+00 at (   6,  10,  10)
       Max divergence:  0.15E+02 at (   7,  10,   5)
       Min divergence: -0.24E+01 at (  14,  10,   1)
       Max VN number:   0.34E+00 at (  10,   1,  16)
       No. of Lagrangian Particles:         15147
       Total Heat Release Rate:            201.921 kW
       Radiation Loss to Boundaries:       -82.187 kW
       Mesh    2
       Max CFL number:  0.47E+00 at (   4,  16,  15)
       Max divergence:  0.47E+00 at (   4,  16,  16)
       Min divergence: -0.50E+00 at (   5,  16,  16)
       Max VN number:   0.17E+00 at (  16,  48,  16)
       No. of Lagrangian Particles:         16560
       Total Heat Release Rate:              0.134 kW
       Radiation Loss to Boundaries:       -14.082 kW
       Mesh    3
       Max CFL number:  0.32E+00 at (   1,   1,  16)
       Max divergence:  0.31E+00 at (   2,  16,   5)
       Min divergence: -0.28E+00 at (  57,  15,   9)
       Max VN number:   0.16E+00 at (   1,   1,  16)
       No. of Lagrangian Particles:          3245
       Radiation Loss to Boundaries:        -5.093 kW
       Mesh    4
       Max CFL number:  0.38E+00 at (  14,  16,  26)
       Max divergence:  0.29E+00 at (   1,   4,   1)
       Min divergence: -0.37E+00 at (  10,   3,  19)
       Max VN number:   0.17E+00 at (  10,   3,  19)
       No. of Lagrangian Particles:            81
       Radiation Loss to Boundaries:        -0.926 kW
       Mesh    5
       Max CFL number:  0.23E+00 at (  63,   9,  16)
       Max divergence:  0.56E-01 at (  60,   4,  16)
       Min divergence: -0.50E-01 at (  62,   4,  15)
       Max VN number:   0.79E-01 at (  62,   4,  16)
       Radiation Loss to Boundaries:        -0.371 kW
 
       Time Step    5000   June 26, 2020  16:49:48
       Step Size:    0.101E-01 s, Total Time:      55.05 s
       Pressure Iterations:      3
       Maximum Velocity Error:  0.23E-01 on Mesh   2 at (  17  11   1)
       Maximum Pressure Error:  0.21E+04 on Mesh   1 at (  14   8   1)
       ScaRC: iterations    45, residual  0.52E-08, convergence rate   0.55E+00
       ---------------------------------------------------------------
       Mesh    1
       Max CFL number:  0.82E+00 at (   7,   6,  13)
       Max divergence:  0.16E+02 at (   9,   9,   4)
       Min divergence: -0.29E+01 at (   8,   8,   5)
       Max VN number:   0.26E+00 at (   7,   6,  13)
       No. of Lagrangian Particles:         15145
       Total Heat Release Rate:            152.443 kW
       Radiation Loss to Boundaries:       -70.023 kW
       Mesh    2
       Max CFL number:  0.38E+00 at (  16,  39,  13)
       Max divergence:  0.54E+00 at (  16,  13,  13)
       Min divergence: -0.48E+00 at (  13,   5,   2)
       Max VN number:   0.13E+00 at (   5,  15,  12)
       No. of Lagrangian Particles:         16597
       Radiation Loss to Boundaries:       -14.873 kW
       Mesh    3
       Max CFL number:  0.28E+00 at (  58,   6,   7)
       Max divergence:  0.49E+00 at (  55,  12,  16)
       Min divergence: -0.46E+00 at (  58,  11,  15)
       Max VN number:   0.12E+00 at (  55,  12,  16)
       No. of Lagrangian Particles:          3097
       Radiation Loss to Boundaries:        -4.875 kW
       Mesh    4
       Max CFL number:  0.44E+00 at (  16,  16,  14)
       Max divergence:  0.46E+00 at (   7,  13,   1)
       Min divergence: -0.34E+00 at (  13,  15,   7)
       Max VN number:   0.18E+00 at (  16,  16,  13)
       No. of Lagrangian Particles:           115
       Radiation Loss to Boundaries:        -0.942 kW
       Mesh    5
       Max CFL number:  0.27E+00 at (  64,  14,   1)
       Max divergence:  0.11E+00 at (  56,  15,  16)
       Min divergence: -0.70E-01 at (  50,  15,  14)
       Max VN number:   0.97E-01 at (  51,   1,  16)
       Radiation Loss to Boundaries:        -0.382 kW
 
       Time Step    5100   June 26, 2020  16:50:13
       Step Size:    0.111E-01 s, Total Time:      56.20 s
       Pressure Iterations:      3
       Maximum Velocity Error:  0.18E-01 on Mesh   2 at (  17   4  11)
       Maximum Pressure Error:  0.11E+04 on Mesh   1 at (  15  10   1)
       ScaRC: iterations    44, residual  0.84E-08, convergence rate   0.55E+00
       ---------------------------------------------------------------
       Mesh    1
       Max CFL number:  0.90E+00 at (   6,   6,  11)
       Max divergence:  0.24E+02 at (  12,  11,   1)
       Min divergence: -0.25E+01 at (  10,   9,   1)
       Max VN number:   0.22E+00 at (  24,   1,  13)
       No. of Lagrangian Particles:         15237
       Total Heat Release Rate:            172.585 kW
       Radiation Loss to Boundaries:       -71.191 kW
       Mesh    2
       Max CFL number:  0.44E+00 at (   1,   2,  14)
       Max divergence:  0.64E+00 at (   1,  17,  14)
       Min divergence: -0.41E+00 at (  16,  14,  15)
       Max VN number:   0.13E+00 at (  15,  24,  16)
       No. of Lagrangian Particles:         15954
       Total Heat Release Rate:              0.078 kW
       Radiation Loss to Boundaries:       -14.341 kW
       Mesh    3
       Max CFL number:  0.37E+00 at (  49,  10,  16)
       Max divergence:  0.41E+00 at (  11,  16,   9)
       Min divergence: -0.42E+00 at (  11,  15,   9)
       Max VN number:   0.15E+00 at (  48,  11,  16)
       No. of Lagrangian Particles:          3353
       Radiation Loss to Boundaries:        -4.758 kW
       Mesh    4
       Max CFL number:  0.44E+00 at (  12,   1,  35)
       Max divergence:  0.75E+00 at (   1,  14,   1)
       Min divergence: -0.49E+00 at (   5,  10,  11)
       Max VN number:   0.19E+00 at (  10,   8,  48)
       No. of Lagrangian Particles:           218
       Radiation Loss to Boundaries:        -1.020 kW
       Mesh    5
       Max CFL number:  0.24E+00 at (  33,   2,  11)
       Max divergence:  0.79E-01 at (  63,   9,  16)
       Min divergence: -0.82E-01 at (  64,   5,   2)
       Max VN number:   0.88E-01 at (  38,   2,  16)
       Radiation Loss to Boundaries:        -0.410 kW
 
       Time Step    5200   June 26, 2020  16:50:46
       Step Size:    0.145E-01 s, Total Time:      57.43 s
       Pressure Iterations:      2
       Maximum Velocity Error:  0.31E-01 on Mesh   4 at (   0  15   1)
       Maximum Pressure Error:  0.20E+04 on Mesh   1 at (   4   8   1)
       ScaRC: iterations    47, residual  0.48E-08, convergence rate   0.54E+00
       ---------------------------------------------------------------
       Mesh    1
       Max CFL number:  0.98E+00 at (   3,  11,  11)
       Max divergence:  0.17E+02 at (   5,   6,   1)
       Min divergence: -0.27E+01 at (  14,   7,   1)
       Max VN number:   0.29E+00 at (   1,   9,  13)
       No. of Lagrangian Particles:         16090
       Total Heat Release Rate:            177.263 kW
       Radiation Loss to Boundaries:       -77.789 kW
       Mesh    2
       Max CFL number:  0.46E+00 at (   2,  16,  16)
       Max divergence:  0.34E+00 at (  15,  18,   5)
       Min divergence: -0.48E+00 at (  16,   7,   4)
       Max VN number:   0.19E+00 at (   2,  15,  11)
       No. of Lagrangian Particles:         15103
       Total Heat Release Rate:              0.038 kW
       Radiation Loss to Boundaries:       -14.208 kW
       Mesh    3
       Max CFL number:  0.46E+00 at (  50,  14,  15)
       Max divergence:  0.51E+00 at (  49,  15,  16)
       Min divergence: -0.53E+00 at (  49,  16,  16)
       Max VN number:   0.16E+00 at (  50,  14,  16)
       No. of Lagrangian Particles:          3054
       Radiation Loss to Boundaries:        -4.713 kW
       Mesh    4
       Max CFL number:  0.64E+00 at (   9,  14,  12)
       Max divergence:  0.55E+00 at (   1,  16,   1)
       Min divergence: -0.25E+00 at (   9,  15,   7)
       Max VN number:   0.25E+00 at (   9,  14,  12)
       No. of Lagrangian Particles:           268
       Radiation Loss to Boundaries:        -0.987 kW
       Mesh    5
       Max CFL number:  0.35E+00 at (  63,   1,  16)
       Max divergence:  0.56E-01 at (  61,   2,   1)
       Min divergence: -0.11E+00 at (  58,   8,   7)
       Max VN number:   0.13E+00 at (  64,  11,  16)
       Radiation Loss to Boundaries:        -0.433 kW
 
       Time Step    5300   June 26, 2020  16:51:15
       Step Size:    0.123E-01 s, Total Time:      58.67 s
       Pressure Iterations:      4
       Maximum Velocity Error:  0.20E-01 on Mesh   2 at (  17   1   1)
       Maximum Pressure Error:  0.44E+04 on Mesh   1 at (   1  13   1)
       ScaRC: iterations    44, residual  0.60E-08, convergence rate   0.55E+00
       ---------------------------------------------------------------
       Mesh    1
       Max CFL number:  0.88E+00 at (   3,  10,  13)
       Max divergence:  0.19E+02 at (   4,   9,   1)
       Min divergence: -0.24E+01 at (   1,  11,   5)
       Max VN number:   0.32E+00 at (   7,  16,  16)
       No. of Lagrangian Particles:         16588
       Total Heat Release Rate:            157.299 kW
       Radiation Loss to Boundaries:       -72.584 kW
       Mesh    2
       Max CFL number:  0.42E+00 at (   8,  13,  15)
       Max divergence:  0.60E+00 at (  16,  49,  15)
       Min divergence: -0.40E+00 at (  15,   9,   4)
       Max VN number:   0.13E+00 at (   8,  16,  16)
       No. of Lagrangian Particles:         15131
       Total Heat Release Rate:              0.026 kW
       Radiation Loss to Boundaries:       -13.658 kW
       Mesh    3
       Max CFL number:  0.30E+00 at (  18,  13,  14)
       Max divergence:  0.26E+00 at (  55,  16,  10)
       Min divergence: -0.36E+00 at (   3,  15,   7)
       Max VN number:   0.14E+00 at (   8,  16,   9)
       No. of Lagrangian Particles:          2661
       Radiation Loss to Boundaries:        -4.688 kW
       Mesh    4
       Max CFL number:  0.44E+00 at (  14,   3,   6)
       Max divergence:  0.42E+00 at (  14,   3,   6)
       Min divergence: -0.37E+00 at (  15,   2,   6)
       Max VN number:   0.19E+00 at (  16,   3,   8)
       No. of Lagrangian Particles:           345
       Radiation Loss to Boundaries:        -0.948 kW
       Mesh    5
       Max CFL number:  0.24E+00 at (  39,  14,  15)
       Max divergence:  0.50E-01 at (  32,  13,  16)
       Min divergence: -0.65E-01 at (  54,  16,  12)
       Max VN number:   0.88E-01 at (  49,  16,  16)
       Radiation Loss to Boundaries:        -0.437 kW
 
       Time Step    5400   June 26, 2020  16:51:45
       Step Size:    0.127E-01 s, Total Time:      59.77 s
       Pressure Iterations:      3
       Maximum Velocity Error:  0.18E-01 on Mesh   2 at (  17  28   8)
       Maximum Pressure Error:  0.40E+03 on Mesh   1 at (  42  16  16)
       ScaRC: iterations    45, residual  0.41E-08, convergence rate   0.55E+00
       ---------------------------------------------------------------
       Mesh    1
       Max CFL number:  0.83E+00 at (   6,   9,   6)
       Max divergence:  0.28E+02 at (  11,  11,   1)
       Min divergence: -0.27E+01 at (   6,   8,   4)
       Max VN number:   0.34E+00 at (   6,   5,  16)
       No. of Lagrangian Particles:         16201
       Total Heat Release Rate:            153.710 kW
       Radiation Loss to Boundaries:       -67.488 kW
       Mesh    2
       Max CFL number:  0.52E+00 at (   3,  16,  15)
       Max divergence:  0.31E+00 at (   1,  17,  16)
       Min divergence: -0.37E+00 at (   1,  16,  16)
       Max VN number:   0.21E+00 at (  16,  48,  16)
       No. of Lagrangian Particles:         15474
       Total Heat Release Rate:              0.219 kW
       Radiation Loss to Boundaries:       -13.811 kW
       Mesh    3
       Max CFL number:  0.46E+00 at (  48,  11,  16)
       Max divergence:  0.36E+00 at (  64,   1,  11)
       Min divergence: -0.27E+00 at (  49,   2,  16)
       Max VN number:   0.19E+00 at (   1,   1,  16)
       No. of Lagrangian Particles:          2608
       Radiation Loss to Boundaries:        -4.691 kW
       Mesh    4
       Max CFL number:  0.44E+00 at (  14,   8,  19)
       Max divergence:  0.23E+00 at (   1,  13,  32)
       Min divergence: -0.25E+00 at (   2,   8,   1)
       Max VN number:   0.15E+00 at (   1,  11,   1)
       No. of Lagrangian Particles:           327
       Radiation Loss to Boundaries:        -1.073 kW
       Mesh    5
       Max CFL number:  0.26E+00 at (  21,  13,  15)
       Max divergence:  0.81E-01 at (  12,   1,  16)
       Min divergence: -0.51E-01 at (  11,   1,  16)
       Max VN number:   0.82E-01 at (  63,   1,  10)
       Radiation Loss to Boundaries:        -0.435 kW
 
       Time Step    5419   June 26, 2020  16:51:51
       Step Size:    0.837E-02 s, Total Time:      60.00 s
       Pressure Iterations:      3
       Maximum Velocity Error:  0.22E-01 on Mesh   2 at (   0  49  12)
       Maximum Pressure Error:  0.30E+04 on Mesh   1 at (  14   6   1)
       ScaRC: iterations    46, residual  0.50E-08, convergence rate   0.55E+00
       ---------------------------------------------------------------
       Mesh    1
       Max CFL number:  0.64E+00 at (   6,  12,  14)
       Max divergence:  0.17E+02 at (   8,   6,   1)
       Min divergence: -0.36E+01 at (  10,   8,   2)
       Max VN number:   0.26E+00 at (   5,   8,  11)
       No. of Lagrangian Particles:         15931
       Total Heat Release Rate:            129.276 kW
       Radiation Loss to Boundaries:       -58.737 kW
       Mesh    2
       Max CFL number:  0.36E+00 at (   4,  16,  16)
       Max divergence:  0.51E+00 at (   1,  17,  15)
       Min divergence: -0.46E+00 at (  15,  36,   8)
       Max VN number:   0.14E+00 at (  16,  48,  16)
       No. of Lagrangian Particles:         15686
       Total Heat Release Rate:              0.226 kW
       Radiation Loss to Boundaries:       -13.985 kW
       Mesh    3
       Max CFL number:  0.30E+00 at (  49,  16,  16)
       Max divergence:  0.37E+00 at (  64,   1,  10)
       Min divergence: -0.27E+00 at (  52,   1,  11)
       Max VN number:   0.15E+00 at (  55,   4,   1)
       No. of Lagrangian Particles:          2655
       Radiation Loss to Boundaries:        -4.656 kW
       Mesh    4
       Max CFL number:  0.26E+00 at (  15,  12,  21)
       Max divergence:  0.35E+00 at (  16,  14,  22)
       Min divergence: -0.29E+00 at (  15,   3,   5)
       Max VN number:   0.11E+00 at (   1,  16,   1)
       No. of Lagrangian Particles:           350
       Radiation Loss to Boundaries:        -1.132 kW
       Mesh    5
       Max CFL number:  0.17E+00 at (  18,  13,  15)
       Max divergence:  0.65E-01 at (  10,   2,  16)
       Min divergence: -0.57E-01 at (   9,   2,  16)
       Max VN number:   0.50E-01 at (  26,   1,  16)
       Radiation Loss to Boundaries:        -0.436 kW
 


 Time Stepping Wall Clock Time (s):     2040.299
 Total Elapsed Wall Clock Time (s):     2045.352

STOP: FDS completed successfully (CHID: hallways_scarc)
