
 Fire Dynamics Simulator

 Current Date     : June 22, 2020  18:04:57
 Revision         : -AMG
 Revision Date    : Mon Jun 22 10:12:53 2020 +0200
 Compiler         : Intel ifort 19.0.5.281
 Compilation Date : Jun 22, 2020 10:54:13

 MPI Enabled;    Number of MPI Processes:       4
 OpenMP Enabled; Number of OpenMP Threads:      4

 MPI version: 3.1
 MPI library version: Intel(R) MPI Library 2018 Update 1 for Linux* OS


 Job TITLE        : Basic Poisson test of tight FFT solver on 2D-pipe geometry with 4 meshes
 Job ID string    : poisson2d_fft_tight


 Grid Dimensions, Mesh     1

   Cells in the X Direction            16
   Cells in the Y Direction             1
   Cells in the Z Direction            16
   Number of Grid Cells               256


 Physical Dimensions, Mesh     1

   Length (m)                       0.400
   Width  (m)                       0.020
   Height (m)                       0.400
   Initial Time Step (s)            0.002

 Grid Dimensions, Mesh     2

   Cells in the X Direction            16
   Cells in the Y Direction             1
   Cells in the Z Direction            16
   Number of Grid Cells               256


 Physical Dimensions, Mesh     2

   Length (m)                       0.400
   Width  (m)                       0.020
   Height (m)                       0.400
   Initial Time Step (s)            0.002

 Grid Dimensions, Mesh     3

   Cells in the X Direction            16
   Cells in the Y Direction             1
   Cells in the Z Direction            16
   Number of Grid Cells               256


 Physical Dimensions, Mesh     3

   Length (m)                       0.400
   Width  (m)                       0.020
   Height (m)                       0.400
   Initial Time Step (s)            0.002

 Grid Dimensions, Mesh     4

   Cells in the X Direction            16
   Cells in the Y Direction             1
   Cells in the Z Direction            16
   Number of Grid Cells               256


 Physical Dimensions, Mesh     4

   Length (m)                       0.400
   Width  (m)                       0.020
   Height (m)                       0.400
   Initial Time Step (s)            0.002

Total Number of Grid Cells          1024


 Miscellaneous Parameters

   Simulation Start Time (s)          0.0
   Simulation End Time (s)            0.5
   Ambient Temperature (C):         20.00


 Mass Fraction Transformation Matrix to Convert Species Mixtures (Columns) to Primitive Species (Rows)

                         AIR     
   NITROGEN              0.762470
   OXYGEN                0.230997
   CARBON DIOXIDE        0.000591
   WATER VAPOR           0.005941


 Primitive Species Information

   NITROGEN
   Gas Species
   Molecular Weight (g/mol)            28.01340
   Ambient Density (kg/m^3)            1.165
   Enthalpy of Formation (J/kg)        0.00E+00

   OXYGEN
   Gas Species
   Molecular Weight (g/mol)            31.99880
   Ambient Density (kg/m^3)            1.330
   Enthalpy of Formation (J/kg)        0.00E+00

   CARBON DIOXIDE
   Gas Species
   Molecular Weight (g/mol)            44.00950
   Ambient Density (kg/m^3)            1.830
   Enthalpy of Formation (J/kg)       -8.94E+06

   WATER VAPOR
   Gas Species
   Molecular Weight (g/mol)            18.01528
   Ambient Density (kg/m^3)            0.749
   Enthalpy of Formation (J/kg)       -1.34E+07


 Tracked (Lumped) Species Information

   AIR
   Molecular Weight (g/mol)            28.75199
   Ambient Density (kg/m^3)            1.195
   Initial Mass Fraction               1.000
   Enthalpy of Formation (J/kg)     -8.50E+04

   Sub Species                    Mass Fraction     Mole Fraction
   NITROGEN                       7.624701E-01      7.825730E-01
   OXYGEN                         2.309974E-01      2.075589E-01
   CARBON DIOXIDE                 5.914651E-04      3.864120E-04
   WATER VAPOR                    5.940984E-03      9.481679E-03
 
     Viscosity (kg/m/s) Ambient,  293 K:  1.80E-05
                                  500 K:  2.61E-05
                                 1000 K:  4.13E-05
                                 1500 K:  5.37E-05
   Therm. Cond. (W/m/K) Ambient,  293 K:  2.56E-02
                                  500 K:  3.81E-02
                                 1000 K:  6.69E-02
                                 1500 K:  9.25E-02
        Enthalpy (J/kg) Ambient,  293 K: -9.01E+04
                                  500 K:  1.22E+05
                                 1000 K:  6.72E+05
                                 1500 K:  1.27E+06
    Spec. Heat (J/kg/K) Ambient,  293 K:  1.02E+03
                                  500 K:  1.04E+03
                                 1000 K:  1.16E+03
                                 1500 K:  1.23E+03
   Diff. Coeff. (m^2/s) Ambient,  293 K:  1.99E-05
                                  500 K:  4.96E-05
                                 1000 K:  1.58E-04
                                 1500 K:  3.09E-04


 Material Information


 Surface Conditions

   0 INERT (DEFAULT)

   1 INFLOW
     Normal Velocity (m/s)        -2.000
     AIR Mass Fraction         1.000

   2 OPEN
     Passive Vent to Atmosphere

   3 MIRROR
     Symmetry Plane

   4 INTERPOLATED

   5 PERIODIC

   6 HVAC

   7 MASSLESS TRACER

   8 DROPLET

   9 EVACUATION_OUTFLOW
     Normal Velocity (m/s)         0.000

  10 MASSLESS TARGET

  11 PERIODIC WIND


 Device Coordinates

     1 Coords:      0.640000      0.000000      0.410000, Make: null, ID: u-vel, Quantity: U-VELOCITY
     2 Coords:      0.640000      0.000000      0.410000, Make: null, ID: w-vel, Quantity: W-VELOCITY
     3 Coords:      0.640000      0.000000      0.410000, Make: null, ID: pres, Quantity: PRESSURE
     4 Coords:      0.000250      0.000000      0.000250, Make: null, ID: error, Quantity: MAXIMUM VELOCITY ERROR
     5 Coords:      0.000250      0.000000      0.000250, Make: null, ID: iter, Quantity: PRESSURE ITERATIONS
     6 Coords:      0.000250      0.000000      0.000250, Make: null, ID: scarc-iter, Quantity: SCARC ITERATIONS
     7 Coords:      0.000250      0.000000      0.000250, Make: null, ID: scarc-rate, Quantity: SCARC CONVERGENCE RATE
     8 Coords:      0.000250      0.000000      0.000250, Make: null, ID: scarc-res, Quantity: SCARC RESIDUAL


 Slice File Information, Mesh     1

   Sampling Interval (s)             0.001

   1 Nodes:   0  16   1   1   0  16, Quantity: VELOCITY
   2 Nodes:   0  16   1   1   0  16, Quantity: U-VELOCITY
   3 Nodes:   0  16   1   1   0  16, Quantity: W-VELOCITY
   4 Nodes:   0  16   1   1   0  16, Quantity: PRESSURE
   5 Nodes:   0  16   1   1   0  16, Quantity: H
 
 

 Run Time Diagnostics

       Time Step       1   June 22, 2020  18:04:57
       Step Size:    0.200E-02 s, Total Time:      0.002 s
       Pressure Iterations:    673
       Maximum Velocity Error:  0.99E-05 on Mesh   1 at (  17   1   1)
       Maximum Pressure Error:  0.97E+00 on Mesh   3 at (   1   1  16)
       ---------------------------------------------------------------
       Mesh    1
       Max CFL number:  0.34E-02 at (   1,   1,  10)
       Max divergence:  0.12E-05 at (   1,   1,  11)
       Min divergence: -0.12E-05 at (   1,   1,   6)
       Max VN number:   0.27E-03 at (  16,   1,  16)
       Mesh    2
       Max CFL number:  0.20E-02 at (   1,   1,  16)
       Max divergence:  0.84E-06 at (  16,   1,  16)
       Min divergence:  0.80E-08 at (   3,   1,   1)
       Max VN number:   0.27E-03 at (  16,   1,  16)
       Mesh    3
       Max CFL number:  0.20E-02 at (  16,   1,   1)
       Max divergence:  0.85E-06 at (   1,   1,   1)
       Min divergence:  0.83E-08 at (  16,   1,  16)
       Max VN number:   0.27E-03 at (  16,   1,  16)
       Mesh    4
       Max CFL number:  0.12E-02 at (   1,   1,   1)
       Max divergence:  0.23E-06 at (   1,   1,   3)
       Min divergence:  0.13E-09 at (  16,   1,  16)
       Max VN number:   0.27E-03 at (  16,   1,  16)
 
       Time Step       2   June 22, 2020  18:04:57
       Step Size:    0.200E-02 s, Total Time:      0.004 s
       Pressure Iterations:     53
       Maximum Velocity Error:  0.10E-04 on Mesh   1 at (  17   1   1)
       Maximum Pressure Error:  0.70E-03 on Mesh   1 at (  10   1  10)
       ---------------------------------------------------------------
       Mesh    1
       Max CFL number:  0.68E-02 at (   1,   1,  10)
       Max divergence:  0.24E-05 at (   1,   1,  11)
       Min divergence: -0.23E-05 at (   1,   1,   6)
       Max VN number:   0.27E-03 at (  11,   1,  16)
       Mesh    2
       Max CFL number:  0.40E-02 at (   1,   1,  16)
       Max divergence:  0.17E-05 at (  16,   1,  16)
       Min divergence:  0.16E-07 at (   3,   1,   1)
       Max VN number:   0.27E-03 at (   8,   1,  16)
       Mesh    3
       Max CFL number:  0.39E-02 at (  16,   1,   1)
       Max divergence:  0.17E-05 at (   1,   1,   1)
       Min divergence:  0.17E-07 at (  16,   1,  16)
       Max VN number:   0.27E-03 at (  16,   1,  16)
       Mesh    4
       Max CFL number:  0.24E-02 at (   1,   1,   1)
       Max divergence:  0.46E-06 at (   1,   1,   3)
       Min divergence:  0.25E-09 at (  16,   1,  16)
       Max VN number:   0.27E-03 at (  16,   1,  16)
 
       Time Step       3   June 22, 2020  18:04:57
       Step Size:    0.200E-02 s, Total Time:      0.006 s
       Pressure Iterations:      2
       Maximum Velocity Error:  0.99E-05 on Mesh   1 at (  17   1   1)
       Maximum Pressure Error:  0.72E-05 on Mesh   1 at (   7   1  10)
       ---------------------------------------------------------------
       Mesh    1
       Max CFL number:  0.10E-01 at (   1,   1,  10)
       Max divergence:  0.36E-05 at (   1,   1,  11)
       Min divergence: -0.35E-05 at (   1,   1,   6)
       Max VN number:   0.27E-03 at (  11,   1,  16)
       Mesh    2
       Max CFL number:  0.59E-02 at (   1,   1,  16)
       Max divergence:  0.25E-05 at (  16,   1,  16)
       Min divergence:  0.24E-07 at (   3,   1,   1)
       Max VN number:   0.27E-03 at (   8,   1,  16)
       Mesh    3
       Max CFL number:  0.59E-02 at (  16,   1,   1)
       Max divergence:  0.26E-05 at (   1,   1,   1)
       Min divergence:  0.25E-07 at (  16,   1,  16)
       Max VN number:   0.27E-03 at (  16,   1,  16)
       Mesh    4
       Max CFL number:  0.36E-02 at (   1,   1,   1)
       Max divergence:  0.68E-06 at (   1,   1,   3)
       Min divergence:  0.38E-09 at (  16,   1,  16)
       Max VN number:   0.27E-03 at (  16,   1,  16)
 
       Time Step       4   June 22, 2020  18:04:57
       Step Size:    0.200E-02 s, Total Time:      0.008 s
       Pressure Iterations:      2
       Maximum Velocity Error:  0.98E-05 on Mesh   1 at (  17   1  15)
       Maximum Pressure Error:  0.64E-05 on Mesh   1 at (  10   1  10)
       ---------------------------------------------------------------
       Mesh    1
       Max CFL number:  0.14E-01 at (   1,   1,  10)
       Max divergence:  0.48E-05 at (   1,   1,  11)
       Min divergence: -0.46E-05 at (   1,   1,   6)
       Max VN number:   0.27E-03 at (  11,   1,  16)
       Mesh    2
       Max CFL number:  0.79E-02 at (   1,   1,  16)
       Max divergence:  0.34E-05 at (  16,   1,  16)
       Min divergence:  0.32E-07 at (   3,   1,   1)
       Max VN number:   0.27E-03 at (   8,   1,  16)
       Mesh    3
       Max CFL number:  0.78E-02 at (  16,   1,   1)
       Max divergence:  0.34E-05 at (   1,   1,   1)
       Min divergence:  0.33E-07 at (  16,   1,  16)
       Max VN number:   0.27E-03 at (  16,   1,  16)
       Mesh    4
       Max CFL number:  0.49E-02 at (   1,   1,   1)
       Max divergence:  0.91E-06 at (   1,   1,   3)
       Min divergence:  0.52E-09 at (  16,   1,  16)
       Max VN number:   0.27E-03 at (  16,   1,  16)
 
       Time Step       5   June 22, 2020  18:04:57
       Step Size:    0.200E-02 s, Total Time:       0.01 s
       Pressure Iterations:      2
       Maximum Velocity Error:  0.98E-05 on Mesh   1 at (  17   1  15)
       Maximum Pressure Error:  0.60E-05 on Mesh   1 at (  10   1  10)
       ---------------------------------------------------------------
       Mesh    1
       Max CFL number:  0.17E-01 at (   1,   1,  10)
       Max divergence:  0.60E-05 at (   1,   1,  11)
       Min divergence: -0.58E-05 at (   1,   1,   6)
       Max VN number:   0.27E-03 at (  11,   1,  16)
       Mesh    2
       Max CFL number:  0.99E-02 at (   1,   1,  16)
       Max divergence:  0.42E-05 at (  16,   1,  16)
       Min divergence:  0.40E-07 at (   3,   1,   1)
       Max VN number:   0.27E-03 at (   8,   1,  16)
       Mesh    3
       Max CFL number:  0.98E-02 at (  16,   1,   1)
       Max divergence:  0.43E-05 at (   1,   1,   1)
       Min divergence:  0.42E-07 at (  16,   1,  16)
       Max VN number:   0.27E-03 at (  16,   1,  16)
       Mesh    4
       Max CFL number:  0.61E-02 at (   1,   1,   1)
       Max divergence:  0.11E-05 at (   1,   1,   3)
       Min divergence:  0.65E-09 at (  16,   1,  16)
       Max VN number:   0.27E-03 at (  16,   1,  16)
 
       Time Step       6   June 22, 2020  18:04:57
       Step Size:    0.200E-02 s, Total Time:       0.01 s
       Pressure Iterations:      2
       Maximum Velocity Error:  0.99E-05 on Mesh   2 at (   1   1  17)
       Maximum Pressure Error:  0.58E-05 on Mesh   1 at (   1   1  10)
       ---------------------------------------------------------------
       Mesh    1
       Max CFL number:  0.20E-01 at (   1,   1,  10)
       Max divergence:  0.71E-05 at (   1,   1,  11)
       Min divergence: -0.69E-05 at (   1,   1,   6)
       Max VN number:   0.27E-03 at (  11,   1,  16)
       Mesh    2
       Max CFL number:  0.12E-01 at (   1,   1,  16)
       Max divergence:  0.51E-05 at (  16,   1,  16)
       Min divergence:  0.48E-07 at (   3,   1,   1)
       Max VN number:   0.27E-03 at (   8,   1,  16)
       Mesh    3
       Max CFL number:  0.12E-01 at (  16,   1,   1)
       Max divergence:  0.51E-05 at (   1,   1,   1)
       Min divergence:  0.50E-07 at (  16,   1,  16)
       Max VN number:   0.27E-03 at (  16,   1,  16)
       Mesh    4
       Max CFL number:  0.73E-02 at (   1,   1,   1)
       Max divergence:  0.14E-05 at (   1,   1,   3)
       Min divergence:  0.79E-09 at (  16,   1,  16)
       Max VN number:   0.27E-03 at (  16,   1,  16)
 
       Time Step       7   June 22, 2020  18:04:57
       Step Size:    0.200E-02 s, Total Time:       0.01 s
       Pressure Iterations:      3
       Maximum Velocity Error:  0.98E-05 on Mesh   2 at (  16   1  17)
       Maximum Pressure Error:  0.68E-05 on Mesh   1 at (   1   1  10)
       ---------------------------------------------------------------
       Mesh    1
       Max CFL number:  0.24E-01 at (   1,   1,  10)
       Max divergence:  0.83E-05 at (   1,   1,  11)
       Min divergence: -0.80E-05 at (   1,   1,   6)
       Max VN number:   0.27E-03 at (  11,   1,  16)
       Mesh    2
       Max CFL number:  0.14E-01 at (   1,   1,  16)
       Max divergence:  0.59E-05 at (  16,   1,  16)
       Min divergence:  0.56E-07 at (   3,   1,   1)
       Max VN number:   0.27E-03 at (   8,   1,  16)
       Mesh    3
       Max CFL number:  0.14E-01 at (  16,   1,   1)
       Max divergence:  0.60E-05 at (   1,   1,   1)
       Min divergence:  0.59E-07 at (  16,   1,  16)
       Max VN number:   0.27E-03 at (  16,   1,  16)
       Mesh    4
       Max CFL number:  0.85E-02 at (   1,   1,   1)
       Max divergence:  0.16E-05 at (   1,   1,   3)
       Min divergence:  0.93E-09 at (  16,   1,  16)
       Max VN number:   0.27E-03 at (  16,   1,  16)
 
       Time Step       8   June 22, 2020  18:04:57
       Step Size:    0.200E-02 s, Total Time:       0.02 s
       Pressure Iterations:      4
       Maximum Velocity Error:  0.99E-05 on Mesh   2 at (  16   1  17)
       Maximum Pressure Error:  0.79E-05 on Mesh   1 at (   1   1  10)
       ---------------------------------------------------------------
       Mesh    1
       Max CFL number:  0.27E-01 at (   1,   1,  10)
       Max divergence:  0.95E-05 at (   1,   1,  11)
       Min divergence: -0.92E-05 at (   1,   1,   6)
       Max VN number:   0.27E-03 at (  11,   1,  16)
       Mesh    2
       Max CFL number:  0.16E-01 at (   1,   1,  16)
       Max divergence:  0.68E-05 at (  16,   1,  16)
       Min divergence:  0.64E-07 at (   3,   1,   1)
       Max VN number:   0.27E-03 at (   8,   1,  16)
       Mesh    3
       Max CFL number:  0.16E-01 at (  16,   1,   1)
       Max divergence:  0.68E-05 at (   1,   1,   1)
       Min divergence:  0.67E-07 at (  16,   1,  16)
       Max VN number:   0.27E-03 at (  16,   1,  16)
       Mesh    4
       Max CFL number:  0.97E-02 at (   1,   1,   1)
       Max divergence:  0.18E-05 at (   1,   1,   3)
       Min divergence:  0.11E-08 at (  16,   1,  16)
       Max VN number:   0.27E-03 at (  16,   1,  16)
 
       Time Step       9   June 22, 2020  18:04:57
       Step Size:    0.200E-02 s, Total Time:       0.02 s
       Pressure Iterations:      4
       Maximum Velocity Error:  0.98E-05 on Mesh   2 at (  15   1  17)
       Maximum Pressure Error:  0.89E-05 on Mesh   1 at (   1   1  10)
       ---------------------------------------------------------------
       Mesh    1
       Max CFL number:  0.30E-01 at (   1,   1,  10)
       Max divergence:  0.11E-04 at (   1,   1,  11)
       Min divergence: -0.10E-04 at (   1,   1,   6)
       Max VN number:   0.27E-03 at (  11,   1,  16)
       Mesh    2
       Max CFL number:  0.18E-01 at (   1,   1,  16)
       Max divergence:  0.76E-05 at (  16,   1,  16)
       Min divergence:  0.72E-07 at (   3,   1,   1)
       Max VN number:   0.27E-03 at (   8,   1,  16)
       Mesh    3
       Max CFL number:  0.18E-01 at (  16,   1,   1)
       Max divergence:  0.77E-05 at (   1,   1,   1)
       Min divergence:  0.75E-07 at (  16,   1,  16)
       Max VN number:   0.27E-03 at (  16,   1,  16)
       Mesh    4
       Max CFL number:  0.11E-01 at (   1,   1,   1)
       Max divergence:  0.20E-05 at (   1,   1,   3)
       Min divergence:  0.12E-08 at (  16,   1,  16)
       Max VN number:   0.27E-03 at (  16,   1,  16)
 
       Time Step      10   June 22, 2020  18:04:57
       Step Size:    0.200E-02 s, Total Time:       0.02 s
       Pressure Iterations:      5
       Maximum Velocity Error:  0.99E-05 on Mesh   1 at (  17   1  16)
       Maximum Pressure Error:  0.99E-05 on Mesh   1 at (   1   1  10)
       ---------------------------------------------------------------
       Mesh    1
       Max CFL number:  0.34E-01 at (   1,   1,  10)
       Max divergence:  0.12E-04 at (   1,   1,  11)
       Min divergence: -0.11E-04 at (   1,   1,   6)
       Max VN number:   0.27E-03 at (  11,   1,  16)
       Mesh    2
       Max CFL number:  0.20E-01 at (   1,   1,  16)
       Max divergence:  0.85E-05 at (  16,   1,  16)
       Min divergence:  0.80E-07 at (   3,   1,   1)
       Max VN number:   0.27E-03 at (   8,   1,  16)
       Mesh    3
       Max CFL number:  0.20E-01 at (  16,   1,   1)
       Max divergence:  0.85E-05 at (   1,   1,   1)
       Min divergence:  0.84E-07 at (  16,   1,  16)
       Max VN number:   0.27E-03 at (  16,   1,  16)
       Mesh    4
       Max CFL number:  0.12E-01 at (   1,   1,   1)
       Max divergence:  0.23E-05 at (   1,   1,   3)
       Min divergence:  0.13E-08 at (  16,   1,  16)
       Max VN number:   0.27E-03 at (  16,   1,  16)
 
       Time Step      20   June 22, 2020  18:04:58
       Step Size:    0.200E-02 s, Total Time:       0.04 s
       Pressure Iterations:      7
       Maximum Velocity Error:  0.99E-05 on Mesh   1 at (  17   1  16)
       Maximum Pressure Error:  0.20E-04 on Mesh   1 at (   1   1  10)
       ---------------------------------------------------------------
       Mesh    1
       Max CFL number:  0.66E-01 at (   1,   1,  10)
       Max divergence:  0.23E-04 at (   1,   1,  11)
       Min divergence: -0.22E-04 at (   1,   1,   6)
       Max VN number:   0.27E-03 at (  11,   1,  16)
       Mesh    2
       Max CFL number:  0.40E-01 at (   1,   1,  16)
       Max divergence:  0.17E-04 at (  16,   1,  16)
       Min divergence:  0.16E-06 at (   3,   1,   1)
       Max VN number:   0.27E-03 at (   8,   1,  16)
       Mesh    3
       Max CFL number:  0.39E-01 at (  16,   1,   1)
       Max divergence:  0.17E-04 at (   1,   1,   1)
       Min divergence:  0.17E-06 at (  16,   1,  16)
       Max VN number:   0.27E-03 at (  16,   1,  16)
       Mesh    4
       Max CFL number:  0.24E-01 at (   1,   1,   1)
       Max divergence:  0.45E-05 at (   1,   1,   3)
       Min divergence:  0.28E-08 at (  16,   1,  16)
       Max VN number:   0.27E-03 at (  16,   1,  16)
 
       Time Step      30   June 22, 2020  18:04:58
       Step Size:    0.200E-02 s, Total Time:       0.06 s
       Pressure Iterations:      4
       Maximum Velocity Error:  0.96E-05 on Mesh   3 at (  17   1   1)
       Maximum Pressure Error:  0.28E-04 on Mesh   1 at (   1   1  10)
       ---------------------------------------------------------------
       Mesh    1
       Max CFL number:  0.95E-01 at (   1,   1,  10)
       Max divergence:  0.32E-04 at (   1,   1,  11)
       Min divergence: -0.31E-04 at (   1,   1,   6)
       Max VN number:   0.27E-03 at (  11,   1,  16)
       Mesh    2
       Max CFL number:  0.58E-01 at (   1,   1,  16)
       Max divergence:  0.26E-04 at (  16,   1,  16)
       Min divergence:  0.24E-06 at (   3,   1,   1)
       Max VN number:   0.27E-03 at (   8,   1,  16)
       Mesh    3
       Max CFL number:  0.58E-01 at (  16,   1,   1)
       Max divergence:  0.25E-04 at (   1,   1,   1)
       Min divergence:  0.25E-06 at (  16,   1,  16)
       Max VN number:   0.27E-03 at (  16,   1,  16)
       Mesh    4
       Max CFL number:  0.35E-01 at (   1,   1,   1)
       Max divergence:  0.67E-05 at (   1,   1,   3)
       Min divergence:  0.45E-08 at (  16,   1,  16)
       Max VN number:   0.27E-03 at (  16,   1,  16)
 
       Time Step      40   June 22, 2020  18:04:58
       Step Size:    0.200E-02 s, Total Time:       0.08 s
       Pressure Iterations:      9
       Maximum Velocity Error:  0.99E-05 on Mesh   1 at (  17   1  16)
       Maximum Pressure Error:  0.83E-04 on Mesh   1 at (   7   1  10)
       ---------------------------------------------------------------
       Mesh    1
       Max CFL number:  0.12E+00 at (   1,   1,  10)
       Max divergence:  0.37E-04 at (   1,   1,  11)
       Min divergence: -0.36E-04 at (   1,   1,   6)
       Max VN number:   0.27E-03 at (  11,   1,  16)
       Mesh    2
       Max CFL number:  0.76E-01 at (   1,   1,  16)
       Max divergence:  0.34E-04 at (  16,   1,  16)
       Min divergence:  0.31E-06 at (   3,   1,   1)
       Max VN number:   0.27E-03 at (   8,   1,  16)
       Mesh    3
       Max CFL number:  0.75E-01 at (  16,   1,   1)
       Max divergence:  0.32E-04 at (   1,   1,   1)
       Min divergence:  0.32E-06 at (  16,   1,  16)
       Max VN number:   0.27E-03 at (  16,   1,  16)
       Mesh    4
       Max CFL number:  0.45E-01 at (   1,   1,   1)
       Max divergence:  0.87E-05 at (   1,   1,   3)
       Min divergence:  0.63E-08 at (  16,   1,  16)
       Max VN number:   0.27E-03 at (  16,   1,  16)
 
       Time Step      50   June 22, 2020  18:04:58
       Step Size:    0.200E-02 s, Total Time:       0.10 s
       Pressure Iterations:     18
       Maximum Velocity Error:  0.10E-04 on Mesh   1 at (  17   1  14)
       Maximum Pressure Error:  0.23E-03 on Mesh   1 at (  10   1  10)
       ---------------------------------------------------------------
       Mesh    1
       Max CFL number:  0.14E+00 at (   1,   1,  10)
       Max divergence:  0.41E-04 at (   1,   1,  11)
       Min divergence: -0.40E-04 at (   1,   1,   6)
       Max VN number:   0.27E-03 at (  11,   1,  16)
       Mesh    2
       Max CFL number:  0.94E-01 at (   1,   1,  16)
       Max divergence:  0.42E-04 at (  16,   1,  16)
       Min divergence:  0.38E-06 at (   3,   1,   1)
       Max VN number:   0.27E-03 at (   8,   1,  16)
       Mesh    3
       Max CFL number:  0.93E-01 at (  16,   1,   1)
       Max divergence:  0.39E-04 at (  16,   1,   1)
       Min divergence:  0.40E-06 at (  16,   1,  16)
       Max VN number:   0.27E-03 at (  16,   1,  16)
       Mesh    4
       Max CFL number:  0.54E-01 at (   1,   1,   1)
       Max divergence:  0.11E-04 at (   1,   1,   3)
       Min divergence:  0.87E-08 at (  16,   1,  16)
       Max VN number:   0.27E-03 at (  16,   1,  16)
 
       Time Step      60   June 22, 2020  18:04:58
       Step Size:    0.200E-02 s, Total Time:       0.12 s
       Pressure Iterations:     14
       Maximum Velocity Error:  0.10E-04 on Mesh   1 at (  17   1  16)
       Maximum Pressure Error:  0.28E-03 on Mesh   1 at (  10   1  10)
       ---------------------------------------------------------------
       Mesh    1
       Max CFL number:  0.15E+00 at (   1,   1,  10)
       Max divergence:  0.53E-04 at (   6,   1,  11)
       Min divergence: -0.46E-04 at (   6,   1,   6)
       Max VN number:   0.27E-03 at (  11,   1,  16)
       Mesh    2
       Max CFL number:  0.11E+00 at (   1,   1,  16)
       Max divergence:  0.49E-04 at (  16,   1,  16)
       Min divergence:  0.44E-06 at (   3,   1,   1)
       Max VN number:   0.27E-03 at (   1,   1,  16)
       Mesh    3
       Max CFL number:  0.11E+00 at (  16,   1,   1)
       Max divergence:  0.48E-04 at (  16,   1,   1)
       Min divergence:  0.46E-06 at (  16,   1,  16)
       Max VN number:   0.27E-03 at (  16,   1,  16)
       Mesh    4
       Max CFL number:  0.61E-01 at (   1,   1,   1)
       Max divergence:  0.13E-04 at (   1,   1,   3)
       Min divergence:  0.11E-07 at (  16,   1,  16)
       Max VN number:   0.27E-03 at (  16,   1,  16)
 
       Time Step      70   June 22, 2020  18:04:58
       Step Size:    0.200E-02 s, Total Time:       0.14 s
       Pressure Iterations:     20
       Maximum Velocity Error:  0.10E-04 on Mesh   1 at (  17   1  13)
       Maximum Pressure Error:  0.30E-03 on Mesh   1 at (  10   1  10)
       ---------------------------------------------------------------
       Mesh    1
       Max CFL number:  0.17E+00 at (   1,   1,  10)
       Max divergence:  0.66E-04 at (   6,   1,  11)
       Min divergence: -0.58E-04 at (   6,   1,   6)
       Max VN number:   0.27E-03 at (  11,   1,  16)
       Mesh    2
       Max CFL number:  0.12E+00 at (   1,   1,  16)
       Max divergence:  0.56E-04 at (  16,   1,  16)
       Min divergence:  0.51E-06 at (   3,   1,   1)
       Max VN number:   0.27E-03 at (   1,   1,  16)
       Mesh    3
       Max CFL number:  0.12E+00 at (  16,   1,   1)
       Max divergence:  0.56E-04 at (  16,   1,   1)
       Min divergence:  0.52E-06 at (  16,   1,  16)
       Max VN number:   0.27E-03 at (  16,   1,  16)
       Mesh    4
       Max CFL number:  0.69E-01 at (   1,   1,   1)
       Max divergence:  0.15E-04 at (   1,   1,   2)
       Min divergence:  0.15E-07 at (  16,   1,  16)
       Max VN number:   0.27E-03 at (  16,   1,  16)
 
       Time Step      80   June 22, 2020  18:04:58
       Step Size:    0.200E-02 s, Total Time:       0.16 s
       Pressure Iterations:      8
       Maximum Velocity Error:  0.92E-05 on Mesh   3 at (  17   1   1)
       Maximum Pressure Error:  0.19E-03 on Mesh   1 at (   8   1  10)
       ---------------------------------------------------------------
       Mesh    1
       Max CFL number:  0.17E+00 at (   1,   1,  10)
       Max divergence:  0.79E-04 at (   6,   1,  11)
       Min divergence: -0.71E-04 at (   6,   1,   6)
       Max VN number:   0.27E-03 at (  11,   1,  16)
       Mesh    2
       Max CFL number:  0.13E+00 at (   1,   1,  16)
       Max divergence:  0.61E-04 at (  16,   1,  16)
       Min divergence:  0.56E-06 at (   4,   1,   1)
       Max VN number:   0.27E-03 at (   1,   1,  16)
       Mesh    3
       Max CFL number:  0.13E+00 at (  16,   1,   1)
       Max divergence:  0.63E-04 at (  16,   1,   1)
       Min divergence:  0.57E-06 at (  16,   1,  16)
       Max VN number:   0.27E-03 at (  16,   1,  16)
       Mesh    4
       Max CFL number:  0.76E-01 at (   1,   1,   1)
       Max divergence:  0.18E-04 at (   1,   1,   2)
       Min divergence:  0.18E-07 at (  16,   1,  16)
       Max VN number:   0.27E-03 at (  16,   1,  16)
 
       Time Step      90   June 22, 2020  18:04:58
       Step Size:    0.200E-02 s, Total Time:       0.18 s
       Pressure Iterations:     16
       Maximum Velocity Error:  0.99E-05 on Mesh   1 at (  17   1  16)
       Maximum Pressure Error:  0.30E-03 on Mesh   1 at (   8   1  10)
       ---------------------------------------------------------------
       Mesh    1
       Max CFL number:  0.18E+00 at (   1,   1,  10)
       Max divergence:  0.92E-04 at (   6,   1,  11)
       Min divergence: -0.83E-04 at (   6,   1,   6)
       Max VN number:   0.27E-03 at (  12,   1,  16)
       Mesh    2
       Max CFL number:  0.14E+00 at (   1,   1,  16)
       Max divergence:  0.65E-04 at (  16,   1,  16)
       Min divergence:  0.61E-06 at (   4,   1,   1)
       Max VN number:   0.27E-03 at (   1,   1,  16)
       Mesh    3
       Max CFL number:  0.14E+00 at (  16,   1,   1)
       Max divergence:  0.69E-04 at (  16,   1,   1)
       Min divergence:  0.61E-06 at (  16,   1,  16)
       Max VN number:   0.27E-03 at (  16,   1,  16)
       Mesh    4
       Max CFL number:  0.83E-01 at (   1,   1,   1)
       Max divergence:  0.23E-04 at (   1,   1,   2)
       Min divergence:  0.22E-07 at (  16,   1,  16)
       Max VN number:   0.27E-03 at (  16,   1,  16)
 
       Time Step     100   June 22, 2020  18:04:58
       Step Size:    0.200E-02 s, Total Time:       0.20 s
       Pressure Iterations:     16
       Maximum Velocity Error:  0.99E-05 on Mesh   1 at (  17   1  16)
       Maximum Pressure Error:  0.35E-03 on Mesh   1 at (  10   1  10)
       ---------------------------------------------------------------
       Mesh    1
       Max CFL number:  0.19E+00 at (   1,   1,  10)
       Max divergence:  0.10E-03 at (   6,   1,  11)
       Min divergence: -0.97E-04 at (   6,   1,   6)
       Max VN number:   0.27E-03 at (  12,   1,  16)
       Mesh    2
       Max CFL number:  0.15E+00 at (   1,   1,  16)
       Max divergence:  0.69E-04 at (  16,   1,  16)
       Min divergence:  0.65E-06 at (   4,   1,   1)
       Max VN number:   0.27E-03 at (   1,   1,  16)
       Mesh    3
       Max CFL number:  0.15E+00 at (  16,   1,   1)
       Max divergence:  0.74E-04 at (  16,   1,   1)
       Min divergence:  0.65E-06 at (  16,   1,  16)
       Max VN number:   0.27E-03 at (  16,   1,  16)
       Mesh    4
       Max CFL number:  0.91E-01 at (   1,   1,   1)
       Max divergence:  0.30E-04 at (   1,   1,   2)
       Min divergence:  0.27E-07 at (  16,   1,  16)
       Max VN number:   0.27E-03 at (  16,   1,  16)
 
       Time Step     200   June 22, 2020  18:04:59
       Step Size:    0.200E-02 s, Total Time:       0.40 s
       Pressure Iterations:     13
       Maximum Velocity Error:  0.10E-04 on Mesh   1 at (  17   1   1)
       Maximum Pressure Error:  0.44E-03 on Mesh   1 at (   7   1  11)
       ---------------------------------------------------------------
       Mesh    1
       Max CFL number:  0.23E+00 at (   6,   1,   5)
       Max divergence:  0.13E-03 at (   7,   1,  13)
       Min divergence: -0.13E-03 at (   7,   1,   4)
       Max VN number:   0.27E-03 at (   1,   1,  16)
       Mesh    2
       Max CFL number:  0.90E-01 at (   1,   1,  16)
       Max divergence:  0.44E-04 at (  16,   1,  16)
       Min divergence:  0.46E-06 at (   9,   1,   1)
       Max VN number:   0.27E-03 at (   1,   1,  16)
       Mesh    3
       Max CFL number:  0.10E+00 at (  16,   1,   1)
       Max divergence:  0.48E-04 at (  16,   1,   1)
       Min divergence: -0.11E-04 at (   1,   1,   3)
       Max VN number:   0.27E-03 at (  16,   1,  16)
       Mesh    4
       Max CFL number:  0.69E-01 at (   1,   1,   1)
       Max divergence:  0.35E-04 at (   1,   1,   2)
       Min divergence: -0.40E-05 at (   6,   1,   2)
       Max VN number:   0.27E-03 at (  16,   1,  16)
 
       Time Step     250   June 22, 2020  18:05:00
       Step Size:    0.200E-02 s, Total Time:       0.50 s
       Pressure Iterations:      6
       Maximum Velocity Error:  0.99E-05 on Mesh   1 at (  17   1   1)
       Maximum Pressure Error:  0.13E-02 on Mesh   1 at (   7   1  10)
       ---------------------------------------------------------------
       Mesh    1
       Max CFL number:  0.20E+00 at (   7,   1,  16)
       Max divergence:  0.11E-03 at (   7,   1,  14)
       Min divergence: -0.11E-03 at (   7,   1,   4)
       Max VN number:   0.27E-03 at (  16,   1,  16)
       Mesh    2
       Max CFL number:  0.41E-01 at (   3,   1,  15)
       Max divergence:  0.11E-04 at (   1,   1,   5)
       Min divergence: -0.18E-04 at (   1,   1,  14)
       Max VN number:   0.27E-03 at (   1,   1,  16)
       Mesh    3
       Max CFL number:  0.55E-01 at (   1,   1,   1)
       Max divergence:  0.16E-04 at (  12,   1,   4)
       Min divergence: -0.39E-04 at (   1,   1,   2)
       Max VN number:   0.27E-03 at (  16,   1,  16)
       Mesh    4
       Max CFL number:  0.33E-01 at (   3,   1,   1)
       Max divergence:  0.17E-04 at (   1,   1,   2)
       Min divergence: -0.52E-05 at (   6,   1,   2)
       Max VN number:   0.27E-03 at (  16,   1,  16)
 


 Time Stepping Wall Clock Time (s):        2.675
 Total Elapsed Wall Clock Time (s):        2.782

STOP: FDS completed successfully (CHID: poisson2d_fft_tight)
