
 Fire Dynamics Simulator

 Current Date     : February 20, 2020  15:37:08
 Revision         : -master
 Revision Date    : Wed Feb 19 18:38:00 2020 +0100
 Compiler         : Intel ifort 18.0.1
 Compilation Date : Feb 19, 2020 18:48:59

 MPI Enabled;    Number of MPI Processes:      16
 OpenMP Enabled; Number of OpenMP Threads:      1

 MPI version: 3.1
 MPI library version: Intel(R) MPI Library 2018 Update 1 for Linux* OS


 Job TITLE        : Basic Poisson test of UScaRC solver on 2D-pipe geometry with 16 meshes
 Job ID string    : poisson2d_16mesh_uscarc


 Grid Dimensions, Mesh     1

   Cells in the X Direction            32
   Cells in the Y Direction             1
   Cells in the Z Direction            32
   Number of Grid Cells              1024


 Physical Dimensions, Mesh     1

   Length (m)                       0.200
   Width  (m)                       0.020
   Height (m)                       0.200
   Initial Time Step (s)            0.002

 Grid Dimensions, Mesh     2

   Cells in the X Direction            32
   Cells in the Y Direction             1
   Cells in the Z Direction            32
   Number of Grid Cells              1024


 Physical Dimensions, Mesh     2

   Length (m)                       0.200
   Width  (m)                       0.020
   Height (m)                       0.200
   Initial Time Step (s)            0.002

 Grid Dimensions, Mesh     3

   Cells in the X Direction            32
   Cells in the Y Direction             1
   Cells in the Z Direction            32
   Number of Grid Cells              1024


 Physical Dimensions, Mesh     3

   Length (m)                       0.200
   Width  (m)                       0.020
   Height (m)                       0.200
   Initial Time Step (s)            0.002

 Grid Dimensions, Mesh     4

   Cells in the X Direction            32
   Cells in the Y Direction             1
   Cells in the Z Direction            32
   Number of Grid Cells              1024


 Physical Dimensions, Mesh     4

   Length (m)                       0.200
   Width  (m)                       0.020
   Height (m)                       0.200
   Initial Time Step (s)            0.002

 Grid Dimensions, Mesh     5

   Cells in the X Direction            32
   Cells in the Y Direction             1
   Cells in the Z Direction            32
   Number of Grid Cells              1024


 Physical Dimensions, Mesh     5

   Length (m)                       0.200
   Width  (m)                       0.020
   Height (m)                       0.200
   Initial Time Step (s)            0.002

 Grid Dimensions, Mesh     6

   Cells in the X Direction            32
   Cells in the Y Direction             1
   Cells in the Z Direction            32
   Number of Grid Cells              1024


 Physical Dimensions, Mesh     6

   Length (m)                       0.200
   Width  (m)                       0.020
   Height (m)                       0.200
   Initial Time Step (s)            0.002

 Grid Dimensions, Mesh     7

   Cells in the X Direction            32
   Cells in the Y Direction             1
   Cells in the Z Direction            32
   Number of Grid Cells              1024


 Physical Dimensions, Mesh     7

   Length (m)                       0.200
   Width  (m)                       0.020
   Height (m)                       0.200
   Initial Time Step (s)            0.002

 Grid Dimensions, Mesh     8

   Cells in the X Direction            32
   Cells in the Y Direction             1
   Cells in the Z Direction            32
   Number of Grid Cells              1024


 Physical Dimensions, Mesh     8

   Length (m)                       0.200
   Width  (m)                       0.020
   Height (m)                       0.200
   Initial Time Step (s)            0.002

 Grid Dimensions, Mesh     9

   Cells in the X Direction            32
   Cells in the Y Direction             1
   Cells in the Z Direction            32
   Number of Grid Cells              1024


 Physical Dimensions, Mesh     9

   Length (m)                       0.200
   Width  (m)                       0.020
   Height (m)                       0.200
   Initial Time Step (s)            0.002

 Grid Dimensions, Mesh    10

   Cells in the X Direction            32
   Cells in the Y Direction             1
   Cells in the Z Direction            32
   Number of Grid Cells              1024


 Physical Dimensions, Mesh    10

   Length (m)                       0.200
   Width  (m)                       0.020
   Height (m)                       0.200
   Initial Time Step (s)            0.002

 Grid Dimensions, Mesh    11

   Cells in the X Direction            32
   Cells in the Y Direction             1
   Cells in the Z Direction            32
   Number of Grid Cells              1024


 Physical Dimensions, Mesh    11

   Length (m)                       0.200
   Width  (m)                       0.020
   Height (m)                       0.200
   Initial Time Step (s)            0.002

 Grid Dimensions, Mesh    12

   Cells in the X Direction            32
   Cells in the Y Direction             1
   Cells in the Z Direction            32
   Number of Grid Cells              1024


 Physical Dimensions, Mesh    12

   Length (m)                       0.200
   Width  (m)                       0.020
   Height (m)                       0.200
   Initial Time Step (s)            0.002

 Grid Dimensions, Mesh    13

   Cells in the X Direction            32
   Cells in the Y Direction             1
   Cells in the Z Direction            32
   Number of Grid Cells              1024


 Physical Dimensions, Mesh    13

   Length (m)                       0.200
   Width  (m)                       0.020
   Height (m)                       0.200
   Initial Time Step (s)            0.002

 Grid Dimensions, Mesh    14

   Cells in the X Direction            32
   Cells in the Y Direction             1
   Cells in the Z Direction            32
   Number of Grid Cells              1024


 Physical Dimensions, Mesh    14

   Length (m)                       0.200
   Width  (m)                       0.020
   Height (m)                       0.200
   Initial Time Step (s)            0.002

 Grid Dimensions, Mesh    15

   Cells in the X Direction            32
   Cells in the Y Direction             1
   Cells in the Z Direction            32
   Number of Grid Cells              1024


 Physical Dimensions, Mesh    15

   Length (m)                       0.200
   Width  (m)                       0.020
   Height (m)                       0.200
   Initial Time Step (s)            0.002

 Grid Dimensions, Mesh    16

   Cells in the X Direction            32
   Cells in the Y Direction             1
   Cells in the Z Direction            32
   Number of Grid Cells              1024


 Physical Dimensions, Mesh    16

   Length (m)                       0.200
   Width  (m)                       0.020
   Height (m)                       0.200
   Initial Time Step (s)            0.002

Total Number of Grid Cells         16384


 Miscellaneous Parameters

   Simulation Start Time (s)          0.0
   Simulation End Time (s)            0.5
   Ambient Temperature (C):         20.00


 Mass Fraction Transformation Matrix to Convert Species Mixtures (Columns) to Primitive Species (Rows)

                         AIR     
   NITROGEN              0.762470
   OXYGEN                0.230997
   CARBON DIOXIDE        0.000591
   WATER VAPOR           0.005941


 Primitive Species Information

   NITROGEN
   Gas Species
   Molecular Weight (g/mol)            28.01340
   Ambient Density (kg/m^3)            1.165
   Enthalpy of Formation (J/kg)        0.00E+00

   OXYGEN
   Gas Species
   Molecular Weight (g/mol)            31.99880
   Ambient Density (kg/m^3)            1.330
   Enthalpy of Formation (J/kg)        0.00E+00

   CARBON DIOXIDE
   Gas Species
   Molecular Weight (g/mol)            44.00950
   Ambient Density (kg/m^3)            1.830
   Enthalpy of Formation (J/kg)       -8.94E+06

   WATER VAPOR
   Gas Species
   Molecular Weight (g/mol)            18.01528
   Ambient Density (kg/m^3)            0.749
   Enthalpy of Formation (J/kg)       -1.34E+07


 Tracked (Lumped) Species Information

   AIR
   Molecular Weight (g/mol)            28.75199
   Ambient Density (kg/m^3)            1.195
   Initial Mass Fraction               1.000
   Enthalpy of Formation (J/kg)     -8.50E+04

   Sub Species                    Mass Fraction     Mole Fraction
   NITROGEN                       7.624701E-01      7.825730E-01
   OXYGEN                         2.309974E-01      2.075589E-01
   CARBON DIOXIDE                 5.914651E-04      3.864120E-04
   WATER VAPOR                    5.940984E-03      9.481679E-03
 
     Viscosity (kg/m/s) Ambient,  293 K:  1.80E-05
                                  500 K:  2.61E-05
                                 1000 K:  4.13E-05
                                 1500 K:  5.37E-05
   Therm. Cond. (W/m/K) Ambient,  293 K:  2.56E-02
                                  500 K:  3.81E-02
                                 1000 K:  6.69E-02
                                 1500 K:  9.25E-02
        Enthalpy (J/kg) Ambient,  293 K: -9.01E+04
                                  500 K:  1.22E+05
                                 1000 K:  6.72E+05
                                 1500 K:  1.27E+06
    Spec. Heat (J/kg/K) Ambient,  293 K:  1.02E+03
                                  500 K:  1.04E+03
                                 1000 K:  1.16E+03
                                 1500 K:  1.23E+03
   Diff. Coeff. (m^2/s) Ambient,  293 K:  1.99E-05
                                  500 K:  4.96E-05
                                 1000 K:  1.58E-04
                                 1500 K:  3.09E-04


 Material Information


 Surface Conditions

   0 INERT (DEFAULT)

   1 INFLOW
     Normal Velocity (m/s)        -2.000
     AIR Mass Fraction         1.000

   2 OPEN
     Passive Vent to Atmosphere

   3 MIRROR
     Symmetry Plane

   4 INTERPOLATED

   5 PERIODIC

   6 HVAC

   7 MASSLESS TRACER

   8 DROPLET

   9 EVACUATION_OUTFLOW
     Normal Velocity (m/s)         0.000

  10 MASSLESS TARGET

  11 PERIODIC WIND

  12 SLICE


 Device Coordinates

     1 Coords:      0.640000      0.000000      0.410000, Make: null, ID: u-vel, Quantity: U-VELOCITY
     2 Coords:      0.640000      0.000000      0.410000, Make: null, ID: w-vel, Quantity: W-VELOCITY
     3 Coords:      0.640000      0.000000      0.410000, Make: null, ID: pres, Quantity: PRESSURE
     4 Coords:      0.000063      0.000000      0.000063, Make: null, ID: error, Quantity: MAXIMUM VELOCITY ERROR
     5 Coords:      0.000063      0.000000      0.000063, Make: null, ID: iter, Quantity: PRESSURE ITERATIONS
     6 Coords:      0.000063      0.000000      0.000063, Make: null, ID: scarc-iter, Quantity: SCARC ITERATIONS
     7 Coords:      0.000063      0.000000      0.000063, Make: null, ID: scarc-rate, Quantity: SCARC CONVERGENCE RATE
     8 Coords:      0.000063      0.000000      0.000063, Make: null, ID: scarc-res, Quantity: SCARC RESIDUAL


 Slice File Information, Mesh     1

   Sampling Interval (s)             0.001

   1 Nodes:   0  32   1   1   0  32, Quantity: VELOCITY
   2 Nodes:   0  32   1   1   0  32, Quantity: U-VELOCITY
   3 Nodes:   0  32   1   1   0  32, Quantity: W-VELOCITY
   4 Nodes:   0  32   1   1   0  32, Quantity: PRESSURE
   5 Nodes:   0  32   1   1   0  32, Quantity: H


 Radiation Model Information

   Number of control angles   60
   Time step increment         2
   Angle increment             4
   Phi band   N_theta Solid angle
     1:       60     0.209
   Using gray gas absorption.
   Mean beam length  0.100 m
 
 

 Run Time Diagnostics

       Time Step       1   February 20, 2020  15:37:08
       Step Size:    0.200E-02 s, Total Time:      0.002 s
       Pressure Iterations:      1
       Maximum Velocity Error:  0.61E-16 on Mesh  13 at (  33   1   3)
       Maximum Pressure Error:  0.19E+06 on Mesh   1 at (  25   1  25)
       ScaRC: iterations   139, residual  0.98E-08, convergence rate   0.82E+00
       ---------------------------------------------------------------
       Mesh    1
       Max CFL number:  0.17E-01 at (   1,   1,  25)
       Max divergence: -0.21E-06 at (  24,   1,  32)
       Min divergence: -0.29E-05 at (   1,   1,  24)
       Max VN number:   0.43E-02 at (  24,   1,  32)
       Mesh    2
       Max CFL number:  0.17E-01 at (   1,   1,   8)
       Max divergence:  0.12E-05 at (   1,   1,   8)
       Min divergence: -0.22E-05 at (  32,   1,  24)
       Max VN number:   0.43E-02 at (  32,   1,  32)
       Mesh    3
       Max CFL number:  0.87E-02 at (   9,   1,  24)
       Max divergence: -0.21E-06 at (   9,   1,  25)
       Min divergence: -0.17E-05 at (  32,   1,  32)
       Max VN number:   0.43E-02 at (  32,   1,  32)
       Mesh    4
       Max CFL number:  0.77E-02 at (  32,   1,  32)
       Max divergence: -0.37E-06 at (   1,   1,   9)
       Min divergence: -0.36E-05 at (  32,   1,  16)
       Max VN number:   0.43E-02 at (  32,   1,  32)
       Mesh    5
       Max CFL number:  0.22E-02 at (   4,   1,  32)
       Max divergence: -0.18E-05 at (   2,   1,   7)
       Min divergence: -0.35E-05 at (  32,   1,  32)
       Max VN number:   0.43E-02 at (  32,   1,  32)
       Mesh    6
       Max CFL number:  0.13E-01 at (   1,   1,  32)
       Max divergence: -0.13E-05 at (   1,   1,  32)
       Min divergence: -0.35E-05 at (  11,   1,   1)
       Max VN number:   0.43E-02 at (  32,   1,  32)
       Mesh    7
       Max CFL number:  0.18E-02 at (   1,   1,  32)
       Max divergence: -0.47E-05 at (  32,   1,   2)
       Min divergence: -0.67E-05 at (   1,   1,  26)
       Max VN number:   0.43E-02 at (  32,   1,  32)
       Mesh    8
       Max CFL number:  0.76E-02 at (  32,   1,  32)
       Max divergence: -0.44E-05 at (  32,   1,   1)
       Min divergence: -0.84E-05 at (   1,   1,  32)
       Max VN number:   0.43E-02 at (  32,   1,  32)
       Mesh    9
       Max CFL number:  0.77E-02 at (   1,   1,   1)
       Max divergence: -0.24E-05 at (   1,   1,  32)
       Min divergence: -0.75E-05 at (  23,   1,   1)
       Max VN number:   0.43E-02 at (  32,   1,  32)
       Mesh   10
       Max CFL number:  0.18E-02 at (  32,   1,   1)
       Max divergence: -0.16E-05 at (   2,   1,  32)
       Min divergence: -0.44E-05 at (  32,   1,   1)
       Max VN number:   0.43E-02 at (  32,   1,  32)
       Mesh   11
       Max CFL number:  0.12E-01 at (  32,   1,   1)
       Max divergence: -0.24E-05 at (  32,   1,   1)
       Min divergence: -0.37E-05 at (   1,   1,   1)
       Max VN number:   0.43E-02 at (  32,   1,  32)
       Mesh   12
       Max CFL number:  0.22E-02 at (  32,   1,   1)
       Max divergence: -0.13E-05 at (   2,   1,  27)
       Min divergence: -0.28E-05 at (  32,   1,  20)
       Max VN number:   0.43E-02 at (  32,   1,  32)
       Mesh   13
       Max CFL number:  0.76E-02 at (   1,   1,   1)
       Max divergence: -0.23E-05 at (  32,   1,  32)
       Min divergence: -0.53E-05 at (   1,   1,  29)
       Max VN number:   0.43E-02 at (  32,   1,  32)
       Mesh   14
       Max CFL number:  0.22E-02 at (   5,   1,   1)
       Max divergence: -0.13E-05 at (  31,   1,  32)
       Min divergence: -0.24E-05 at (   1,   1,   2)
       Max VN number:   0.43E-02 at (  32,   1,  32)
       Mesh   15
       Max CFL number:  0.22E-02 at (   1,   1,  12)
       Max divergence: -0.17E-05 at (  32,   1,  28)
       Min divergence: -0.32E-05 at (   1,   1,  32)
       Max VN number:   0.43E-02 at (  32,   1,  32)
       Mesh   16
       Max CFL number:  0.21E-02 at (   1,   1,   1)
       Max divergence: -0.11E-05 at (  32,   1,  21)
       Min divergence: -0.22E-05 at (   1,   1,   8)
       Max VN number:   0.43E-02 at (  32,   1,  32)
 
       Time Step       2   February 20, 2020  15:37:09
       Step Size:    0.200E-02 s, Total Time:      0.004 s
       Pressure Iterations:      1
       Maximum Velocity Error:  0.61E-16 on Mesh  13 at (  33   1   2)
       Maximum Pressure Error:  0.19E+06 on Mesh   1 at (  25   1  25)
       ScaRC: iterations   128, residual  0.86E-08, convergence rate   0.83E+00
       ---------------------------------------------------------------
       Mesh    1
       Max CFL number:  0.34E-01 at (   1,   1,  25)
       Max divergence: -0.14E-06 at (  24,   1,  32)
       Min divergence: -0.48E-05 at (   1,   1,  24)
       Max VN number:   0.43E-02 at (  24,   1,  32)
       Mesh    2
       Max CFL number:  0.34E-01 at (   1,   1,   8)
       Max divergence:  0.37E-05 at (   1,   1,   9)
       Min divergence: -0.21E-05 at (  32,   1,  31)
       Max VN number:   0.43E-02 at (   1,   1,  32)
       Mesh    3
       Max CFL number:  0.17E-01 at (   9,   1,  24)
       Max divergence:  0.93E-06 at (   9,   1,  25)
       Min divergence: -0.13E-05 at (  28,   1,  21)
       Max VN number:   0.43E-02 at (   9,   1,  32)
       Mesh    4
       Max CFL number:  0.15E-01 at (  32,   1,  32)
       Max divergence: -0.27E-06 at (   1,   1,   9)
       Min divergence: -0.26E-05 at (   9,   1,   8)
       Max VN number:   0.43E-02 at (   1,   1,  32)
       Mesh    5
       Max CFL number:  0.43E-02 at (   4,   1,  32)
       Max divergence: -0.14E-05 at (   1,   1,  14)
       Min divergence: -0.28E-05 at (  25,   1,  32)
       Max VN number:   0.43E-02 at (   1,   1,  32)
       Mesh    6
       Max CFL number:  0.25E-01 at (   1,   1,  32)
       Max divergence:  0.71E-06 at (   1,   1,  32)
       Min divergence: -0.28E-05 at (   2,   1,   1)
       Max VN number:   0.43E-02 at (  10,   1,  32)
       Mesh    7
       Max CFL number:  0.35E-02 at (   1,   1,  32)
       Max divergence: -0.35E-05 at (  32,   1,   2)
       Min divergence: -0.57E-05 at (  10,   1,  16)
       Max VN number:   0.43E-02 at (  32,   1,  32)
       Mesh    8
       Max CFL number:  0.15E-01 at (  32,   1,  32)
       Max divergence: -0.21E-05 at (  32,   1,  32)
       Min divergence: -0.56E-05 at (   1,   1,   1)
       Max VN number:   0.43E-02 at (  32,   1,  32)
       Mesh    9
       Max CFL number:  0.15E-01 at (   1,   1,   1)
       Max divergence: -0.72E-06 at (   1,   1,  25)
       Min divergence: -0.43E-05 at (  32,   1,   1)
       Max VN number:   0.43E-02 at (   1,   1,  32)
       Mesh   10
       Max CFL number:  0.35E-02 at (  32,   1,   1)
       Max divergence: -0.16E-05 at (  14,   1,  28)
       Min divergence: -0.40E-05 at (  32,   1,   1)
       Max VN number:   0.43E-02 at (   2,   1,  32)
       Mesh   11
       Max CFL number:  0.25E-01 at (  32,   1,   1)
       Max divergence: -0.63E-06 at (  32,   1,   1)
       Min divergence: -0.34E-05 at (   1,   1,   4)
       Max VN number:   0.43E-02 at (   9,   1,  32)
       Mesh   12
       Max CFL number:  0.45E-02 at (  32,   1,   1)
       Max divergence: -0.77E-06 at (  13,   1,  24)
       Min divergence: -0.23E-05 at (  32,   1,   7)
       Max VN number:   0.43E-02 at (   1,   1,  32)
       Mesh   13
       Max CFL number:  0.15E-01 at (   1,   1,   1)
       Max divergence: -0.14E-05 at (  32,   1,  26)
       Min divergence: -0.38E-05 at (   1,   1,  31)
       Max VN number:   0.43E-02 at (  32,   1,  32)
       Mesh   14
       Max CFL number:  0.45E-02 at (   5,   1,   1)
       Max divergence: -0.92E-06 at (  32,   1,  19)
       Min divergence: -0.22E-05 at (   1,   1,   2)
       Max VN number:   0.43E-02 at (  31,   1,  32)
       Mesh   15
       Max CFL number:  0.44E-02 at (   1,   1,  12)
       Max divergence: -0.13E-05 at (  32,   1,   5)
       Min divergence: -0.32E-05 at (   1,   1,  23)
       Max VN number:   0.43E-02 at (  32,   1,  32)
       Mesh   16
       Max CFL number:  0.42E-02 at (   1,   1,   1)
       Max divergence: -0.12E-05 at (  32,   1,   1)
       Min divergence: -0.21E-05 at (   1,   1,   8)
       Max VN number:   0.43E-02 at (  32,   1,  32)
 
       Time Step       3   February 20, 2020  15:37:09
       Step Size:    0.200E-02 s, Total Time:      0.006 s
       Pressure Iterations:      1
       Maximum Velocity Error:  0.62E-16 on Mesh  13 at (  33   1   2)
       Maximum Pressure Error:  0.19E+06 on Mesh   1 at (  25   1  25)
       ScaRC: iterations   128, residual  0.86E-08, convergence rate   0.83E+00
       ---------------------------------------------------------------
       Mesh    1
       Max CFL number:  0.50E-01 at (   1,   1,  25)
       Max divergence: -0.14E-06 at (  24,   1,  32)
       Min divergence: -0.68E-05 at (   1,   1,  24)
       Max VN number:   0.43E-02 at (  24,   1,  32)
       Mesh    2
       Max CFL number:  0.51E-01 at (   1,   1,   8)
       Max divergence:  0.57E-05 at (   1,   1,   9)
       Min divergence: -0.21E-05 at (  32,   1,  31)
       Max VN number:   0.43E-02 at (   1,   1,  32)
       Mesh    3
       Max CFL number:  0.26E-01 at (   9,   1,  24)
       Max divergence:  0.18E-05 at (   9,   1,  25)
       Min divergence: -0.12E-05 at (  28,   1,  18)
       Max VN number:   0.43E-02 at (   9,   1,  32)
       Mesh    4
       Max CFL number:  0.23E-01 at (  32,   1,  32)
       Max divergence: -0.27E-06 at (   1,   1,   9)
       Min divergence: -0.33E-05 at (   9,   1,   8)
       Max VN number:   0.43E-02 at (   1,   1,  32)
       Mesh    5
       Max CFL number:  0.65E-02 at (   4,   1,  32)
       Max divergence: -0.14E-05 at (   1,   1,  16)
       Min divergence: -0.26E-05 at (  25,   1,  32)
       Max VN number:   0.43E-02 at (   1,   1,  32)
       Mesh    6
       Max CFL number:  0.37E-01 at (   1,   1,  32)
       Max divergence:  0.19E-05 at (   1,   1,  32)
       Min divergence: -0.26E-05 at (   1,   1,   1)
       Max VN number:   0.43E-02 at (   8,   1,  32)
       Mesh    7
       Max CFL number:  0.53E-02 at (   1,   1,  32)
       Max divergence: -0.35E-05 at (  32,   1,   2)
       Min divergence: -0.56E-05 at (  10,   1,  16)
       Max VN number:   0.43E-02 at (  32,   1,  32)
       Mesh    8
       Max CFL number:  0.23E-01 at (  32,   1,  32)
       Max divergence: -0.63E-06 at (  32,   1,  32)
       Min divergence: -0.54E-05 at (   1,   1,   1)
       Max VN number:   0.43E-02 at (  27,   1,  32)
       Mesh    9
       Max CFL number:  0.23E-01 at (   1,   1,   1)
       Max divergence:  0.44E-06 at (   1,   1,   1)
       Min divergence: -0.39E-05 at (  32,   1,   1)
       Max VN number:   0.43E-02 at (   1,   1,  32)
       Mesh   10
       Max CFL number:  0.53E-02 at (  32,   1,   1)
       Max divergence: -0.15E-05 at (  13,   1,  26)
       Min divergence: -0.38E-05 at (  32,   1,   1)
       Max VN number:   0.43E-02 at (   1,   1,  32)
       Mesh   11
       Max CFL number:  0.37E-01 at (  32,   1,   1)
       Max divergence:  0.61E-06 at (  32,   1,   1)
       Min divergence: -0.31E-05 at (   1,   1,   4)
       Max VN number:   0.43E-02 at (  22,   1,  32)
       Mesh   12
       Max CFL number:  0.67E-02 at (  32,   1,   1)
       Max divergence: -0.72E-06 at (  13,   1,  22)
       Min divergence: -0.22E-05 at (  32,   1,  10)
       Max VN number:   0.43E-02 at (  10,   1,  32)
       Mesh   13
       Max CFL number:  0.23E-01 at (   1,   1,   1)
       Max divergence: -0.13E-05 at (  32,   1,  26)
       Min divergence: -0.37E-05 at (   1,   1,  31)
       Max VN number:   0.43E-02 at (  32,   1,  32)
       Mesh   14
       Max CFL number:  0.67E-02 at (   5,   1,   1)
       Max divergence: -0.90E-06 at (  32,   1,  19)
       Min divergence: -0.20E-05 at (   1,   1,  25)
       Max VN number:   0.43E-02 at (  31,   1,  32)
       Mesh   15
       Max CFL number:  0.66E-02 at (   1,   1,  12)
       Max divergence: -0.13E-05 at (  32,   1,   5)
       Min divergence: -0.31E-05 at (   1,   1,  23)
       Max VN number:   0.43E-02 at (  32,   1,  32)
       Mesh   16
       Max CFL number:  0.63E-02 at (   1,   1,   1)
       Max divergence: -0.12E-05 at (  32,   1,   1)
       Min divergence: -0.21E-05 at (   1,   1,   8)
       Max VN number:   0.43E-02 at (  32,   1,  32)
 
       Time Step       4   February 20, 2020  15:37:09
       Step Size:    0.200E-02 s, Total Time:      0.008 s
       Pressure Iterations:      1
       Maximum Velocity Error:  0.59E-16 on Mesh  13 at (  33   1   1)
       Maximum Pressure Error:  0.19E+06 on Mesh   1 at (  25   1  25)
       ScaRC: iterations   130, residual  0.75E-08, convergence rate   0.83E+00
       ---------------------------------------------------------------
       Mesh    1
       Max CFL number:  0.67E-01 at (   1,   1,  25)
       Max divergence: -0.10E-06 at (  24,   1,  32)
       Min divergence: -0.83E-05 at (   1,   1,  24)
       Max VN number:   0.43E-02 at (  24,   1,  32)
       Mesh    2
       Max CFL number:  0.68E-01 at (   1,   1,   8)
       Max divergence:  0.78E-05 at (   1,   1,   9)
       Min divergence: -0.18E-05 at (  32,   1,  32)
       Max VN number:   0.43E-02 at (   1,   1,  32)
       Mesh    3
       Max CFL number:  0.35E-01 at (   9,   1,  24)
       Max divergence:  0.30E-05 at (   9,   1,  25)
       Min divergence: -0.97E-06 at (  21,   1,   1)
       Max VN number:   0.43E-02 at (   9,   1,  32)
       Mesh    4
       Max CFL number:  0.31E-01 at (  32,   1,  32)
       Max divergence:  0.95E-07 at (  32,   1,  31)
       Min divergence: -0.36E-05 at (   9,   1,   8)
       Max VN number:   0.43E-02 at (   1,   1,  32)
       Mesh    5
       Max CFL number:  0.86E-02 at (   4,   1,  32)
       Max divergence: -0.10E-05 at (  32,   1,  10)
       Min divergence: -0.20E-05 at (   9,   1,   2)
       Max VN number:   0.43E-02 at (   1,   1,  32)
       Mesh    6
       Max CFL number:  0.50E-01 at (   1,   1,  32)
       Max divergence:  0.36E-05 at (   1,   1,  32)
       Min divergence: -0.17E-05 at (   1,   1,   1)
       Max VN number:   0.43E-02 at (   9,   1,  32)
       Mesh    7
       Max CFL number:  0.71E-02 at (   1,   1,  32)
       Max divergence: -0.28E-05 at (  32,   1,  17)
       Min divergence: -0.50E-05 at (   3,   1,   8)
       Max VN number:   0.43E-02 at (  32,   1,  32)
       Mesh    8
       Max CFL number:  0.30E-01 at (  32,   1,  32)
       Max divergence:  0.24E-05 at (  32,   1,  32)
       Min divergence: -0.32E-05 at (   1,   1,   1)
       Max VN number:   0.43E-02 at (  26,   1,  32)
       Mesh    9
       Max CFL number:  0.30E-01 at (   1,   1,   1)
       Max divergence:  0.34E-05 at (   1,   1,   1)
       Min divergence: -0.16E-05 at (  32,   1,   1)
       Max VN number:   0.43E-02 at (   1,   1,  32)
       Mesh   10
       Max CFL number:  0.71E-02 at (  32,   1,   1)
       Max divergence: -0.13E-05 at (   1,   1,   1)
       Min divergence: -0.30E-05 at (  32,   1,   2)
       Max VN number:   0.43E-02 at (   1,   1,  32)
       Mesh   11
       Max CFL number:  0.49E-01 at (  32,   1,   1)
       Max divergence:  0.19E-05 at (  32,   1,   1)
       Min divergence: -0.30E-05 at (   1,   1,   2)
       Max VN number:   0.43E-02 at (  24,   1,  32)
       Mesh   12
       Max CFL number:  0.89E-02 at (  32,   1,   1)
       Max divergence: -0.67E-06 at (  22,   1,  23)
       Min divergence: -0.19E-05 at (   1,   1,  32)
       Max VN number:   0.43E-02 at (  12,   1,  32)
       Mesh   13
       Max CFL number:  0.30E-01 at (   1,   1,   1)
       Max divergence: -0.69E-06 at (  31,   1,  24)
       Min divergence: -0.26E-05 at (   3,   1,  31)
       Max VN number:   0.43E-02 at (  32,   1,  32)
       Mesh   14
       Max CFL number:  0.89E-02 at (   5,   1,   1)
       Max divergence: -0.42E-06 at (  32,   1,   9)
       Min divergence: -0.20E-05 at (   1,   1,  26)
       Max VN number:   0.43E-02 at (  31,   1,  32)
       Mesh   15
       Max CFL number:  0.89E-02 at (   1,   1,  12)
       Max divergence: -0.13E-05 at (  32,   1,   1)
       Min divergence: -0.28E-05 at (   1,   1,  21)
       Max VN number:   0.43E-02 at (  32,   1,  32)
       Mesh   16
       Max CFL number:  0.84E-02 at (   1,   1,   1)
       Max divergence: -0.95E-06 at (  17,   1,  32)
       Min divergence: -0.22E-05 at (   1,   1,   8)
       Max VN number:   0.43E-02 at (  32,   1,  32)
 
       Time Step       5   February 20, 2020  15:37:09
       Step Size:    0.200E-02 s, Total Time:       0.01 s
       Pressure Iterations:      1
       Maximum Velocity Error:  0.62E-16 on Mesh  13 at (  33   1   1)
       Maximum Pressure Error:  0.19E+06 on Mesh   1 at (  25   1  25)
       ScaRC: iterations   130, residual  0.94E-08, convergence rate   0.83E+00
       ---------------------------------------------------------------
       Mesh    1
       Max CFL number:  0.83E-01 at (   1,   1,  25)
       Max divergence: -0.10E-06 at (  24,   1,  32)
       Min divergence: -0.10E-04 at (   1,   1,  24)
       Max VN number:   0.43E-02 at (  24,   1,  32)
       Mesh    2
       Max CFL number:  0.84E-01 at (   1,   1,   8)
       Max divergence:  0.98E-05 at (   1,   1,   9)
       Min divergence: -0.17E-05 at (  32,   1,  32)
       Max VN number:   0.43E-02 at (   1,   1,  32)
       Mesh    3
       Max CFL number:  0.43E-01 at (   9,   1,  24)
       Max divergence:  0.38E-05 at (   9,   1,  25)
       Min divergence: -0.97E-06 at (  21,   1,   1)
       Max VN number:   0.43E-02 at (   9,   1,  32)
       Mesh    4
       Max CFL number:  0.39E-01 at (  32,   1,  32)
       Max divergence:  0.48E-06 at (  32,   1,  31)
       Min divergence: -0.43E-05 at (   9,   1,   8)
       Max VN number:   0.43E-02 at (   2,   1,  32)
       Mesh    5
       Max CFL number:  0.11E-01 at (   4,   1,  32)
       Max divergence: -0.94E-06 at (  32,   1,  32)
       Min divergence: -0.20E-05 at (   9,   1,   2)
       Max VN number:   0.43E-02 at (   1,   1,  32)
       Mesh    6
       Max CFL number:  0.62E-01 at (   1,   1,  32)
       Max divergence:  0.48E-05 at (   1,   1,  32)
       Min divergence: -0.16E-05 at (   1,   1,   1)
       Max VN number:   0.43E-02 at (   9,   1,  32)
       Mesh    7
       Max CFL number:  0.89E-02 at (   1,   1,  32)
       Max divergence: -0.27E-05 at (  32,   1,  21)
       Min divergence: -0.50E-05 at (   3,   1,   8)
       Max VN number:   0.43E-02 at (  32,   1,  32)
       Mesh    8
       Max CFL number:  0.38E-01 at (  32,   1,  32)
       Max divergence:  0.38E-05 at (  32,   1,  32)
       Min divergence: -0.30E-05 at (   1,   1,   1)
       Max VN number:   0.43E-02 at (  26,   1,  32)
       Mesh    9
       Max CFL number:  0.38E-01 at (   1,   1,   1)
       Max divergence:  0.48E-05 at (   1,   1,   1)
       Min divergence: -0.12E-05 at (  32,   1,   1)
       Max VN number:   0.43E-02 at (   1,   1,  32)
       Mesh   10
       Max CFL number:  0.89E-02 at (  32,   1,   1)
       Max divergence: -0.11E-05 at (   1,   1,   1)
       Min divergence: -0.28E-05 at (  32,   1,   2)
       Max VN number:   0.43E-02 at (   1,   1,  32)
       Mesh   11
       Max CFL number:  0.62E-01 at (  32,   1,   1)
       Max divergence:  0.32E-05 at (  32,   1,   1)
       Min divergence: -0.26E-05 at (   1,   1,   2)
       Max VN number:   0.43E-02 at (  28,   1,  32)
       Mesh   12
       Max CFL number:  0.11E-01 at (  32,   1,   1)
       Max divergence: -0.62E-06 at (   9,   1,   1)
       Min divergence: -0.19E-05 at (   1,   1,  32)
       Max VN number:   0.43E-02 at (  13,   1,  32)
       Mesh   13
       Max CFL number:  0.38E-01 at (   1,   1,   1)
       Max divergence: -0.39E-06 at (   1,   1,   2)
       Min divergence: -0.25E-05 at (   3,   1,  31)
       Max VN number:   0.43E-02 at (  32,   1,  32)
       Mesh   14
       Max CFL number:  0.11E-01 at (   5,   1,   1)
       Max divergence: -0.39E-06 at (  31,   1,   8)
       Min divergence: -0.20E-05 at (   1,   1,  31)
       Max VN number:   0.43E-02 at (  31,   1,  32)
       Mesh   15
       Max CFL number:  0.11E-01 at (   1,   1,  12)
       Max divergence: -0.13E-05 at (  32,   1,   1)
       Min divergence: -0.28E-05 at (   1,   1,  21)
       Max VN number:   0.43E-02 at (  32,   1,  32)
       Mesh   16
       Max CFL number:  0.10E-01 at (   1,   1,   1)
       Max divergence: -0.95E-06 at (  17,   1,  32)
       Min divergence: -0.21E-05 at (   1,   1,   8)
       Max VN number:   0.43E-02 at (  22,   1,  32)
 
       Time Step       6   February 20, 2020  15:37:09
       Step Size:    0.200E-02 s, Total Time:       0.01 s
       Pressure Iterations:      1
       Maximum Velocity Error:  0.62E-16 on Mesh  13 at (  33   1   1)
       Maximum Pressure Error:  0.19E+06 on Mesh   1 at (  25   1  25)
       ScaRC: iterations   131, residual  0.77E-08, convergence rate   0.83E+00
       ---------------------------------------------------------------
       Mesh    1
       Max CFL number:  0.99E-01 at (   1,   1,  25)
       Max divergence: -0.87E-07 at (  24,   1,  32)
       Min divergence: -0.12E-04 at (   1,   1,  24)
       Max VN number:   0.43E-02 at (   1,   1,  32)
       Mesh    2
       Max CFL number:  0.10E+00 at (   1,   1,   8)
       Max divergence:  0.12E-04 at (   1,   1,   9)
       Min divergence: -0.16E-05 at (  32,   1,  32)
       Max VN number:   0.43E-02 at (   1,   1,  32)
       Mesh    3
       Max CFL number:  0.52E-01 at (   9,   1,  24)
       Max divergence:  0.49E-05 at (   9,   1,  25)
       Min divergence: -0.83E-06 at (  21,   1,   1)
       Max VN number:   0.43E-02 at (   9,   1,  32)
       Mesh    4
       Max CFL number:  0.47E-01 at (  32,   1,  32)
       Max divergence:  0.12E-05 at (  32,   1,  31)
       Min divergence: -0.46E-05 at (   9,   1,   8)
       Max VN number:   0.43E-02 at (   2,   1,  32)
       Mesh    5
       Max CFL number:  0.13E-01 at (   4,   1,  32)
       Max divergence: -0.46E-06 at (  32,   1,  32)
       Min divergence: -0.17E-05 at (   7,   1,   1)
       Max VN number:   0.43E-02 at (   1,   1,  32)
       Mesh    6
       Max CFL number:  0.75E-01 at (   1,   1,  32)
       Max divergence:  0.62E-05 at (   1,   1,  32)
       Min divergence: -0.76E-06 at (   1,   1,   2)
       Max VN number:   0.43E-02 at (  27,   1,  32)
       Mesh    7
       Max CFL number:  0.11E-01 at (   1,   1,  32)
       Max divergence: -0.23E-05 at (  32,   1,  22)
       Min divergence: -0.44E-05 at (  11,   1,  32)
       Max VN number:   0.43E-02 at (  32,   1,  32)
       Mesh    8
       Max CFL number:  0.46E-01 at (  32,   1,  32)
       Max divergence:  0.63E-05 at (  32,   1,  32)
       Min divergence: -0.15E-05 at (   1,   1,   1)
       Max VN number:   0.43E-02 at (   1,   1,  32)
       Mesh    9
       Max CFL number:  0.45E-01 at (   1,   1,   1)
       Max divergence:  0.72E-05 at (   1,   1,   1)
       Min divergence: -0.33E-06 at (  32,   1,  32)
       Max VN number:   0.43E-02 at (   1,   1,  32)
       Mesh   10
       Max CFL number:  0.11E-01 at (  32,   1,   1)
       Max divergence: -0.47E-06 at (   1,   1,   1)
       Min divergence: -0.23E-05 at (  32,   1,   2)
       Max VN number:   0.43E-02 at (   1,   1,  32)
       Mesh   11
       Max CFL number:  0.74E-01 at (  32,   1,   1)
       Max divergence:  0.44E-05 at (  32,   1,   1)
       Min divergence: -0.21E-05 at (   1,   1,   1)
       Max VN number:   0.43E-02 at (  31,   1,  32)
       Mesh   12
       Max CFL number:  0.13E-01 at (  32,   1,   1)
       Max divergence: -0.63E-06 at (   9,   1,   1)
       Min divergence: -0.18E-05 at (   3,   1,  32)
       Max VN number:   0.43E-02 at (  15,   1,  32)
       Mesh   13
       Max CFL number:  0.45E-01 at (   1,   1,   1)
       Max divergence:  0.35E-06 at (   1,   1,   2)
       Min divergence: -0.18E-05 at (   8,   1,  32)
       Max VN number:   0.43E-02 at (  32,   1,  32)
       Mesh   14
       Max CFL number:  0.13E-01 at (   5,   1,   1)
       Max divergence: -0.77E-07 at (  22,   1,   1)
       Min divergence: -0.19E-05 at (   1,   1,  31)
       Max VN number:   0.43E-02 at (  31,   1,  32)
       Mesh   15
       Max CFL number:  0.13E-01 at (   1,   1,  12)
       Max divergence: -0.15E-05 at (  32,   1,  32)
       Min divergence: -0.24E-05 at (   1,   1,  21)
       Max VN number:   0.43E-02 at (  32,   1,  32)
       Mesh   16
       Max CFL number:  0.13E-01 at (   1,   1,   1)
       Max divergence: -0.79E-06 at (  32,   1,  32)
       Min divergence: -0.20E-05 at (   1,   1,   2)
       Max VN number:   0.43E-02 at (  20,   1,  32)
 
       Time Step       7   February 20, 2020  15:37:09
       Step Size:    0.200E-02 s, Total Time:       0.01 s
       Pressure Iterations:      1
       Maximum Velocity Error:  0.62E-16 on Mesh  13 at (  33   1   1)
       Maximum Pressure Error:  0.19E+06 on Mesh   1 at (  25   1  25)
       ScaRC: iterations   131, residual  0.92E-08, convergence rate   0.83E+00
       ---------------------------------------------------------------
       Mesh    1
       Max CFL number:  0.12E+00 at (   1,   1,  25)
       Max divergence: -0.86E-07 at (  24,   1,  32)
       Min divergence: -0.14E-04 at (   1,   1,  24)
       Max VN number:   0.43E-02 at (   1,   1,  32)
       Mesh    2
       Max CFL number:  0.12E+00 at (   1,   1,   8)
       Max divergence:  0.14E-04 at (   1,   1,   9)
       Min divergence: -0.16E-05 at (  32,   1,  32)
       Max VN number:   0.43E-02 at (   1,   1,  32)
       Mesh    3
       Max CFL number:  0.60E-01 at (   9,   1,  24)
       Max divergence:  0.57E-05 at (   9,   1,  25)
       Min divergence: -0.83E-06 at (  21,   1,   1)
       Max VN number:   0.43E-02 at (   9,   1,  32)
       Mesh    4
       Max CFL number:  0.55E-01 at (  32,   1,  32)
       Max divergence:  0.16E-05 at (  32,   1,  31)
       Min divergence: -0.53E-05 at (   9,   1,   8)
       Max VN number:   0.43E-02 at (   2,   1,  32)
       Mesh    5
       Max CFL number:  0.15E-01 at (   4,   1,  32)
       Max divergence: -0.26E-06 at (  32,   1,  32)
       Min divergence: -0.17E-05 at (   7,   1,   1)
       Max VN number:   0.43E-02 at (   1,   1,  32)
       Mesh    6
       Max CFL number:  0.87E-01 at (   1,   1,  32)
       Max divergence:  0.74E-05 at (   1,   1,  32)
       Min divergence: -0.62E-06 at (   1,   1,   2)
       Max VN number:   0.43E-02 at (  27,   1,  32)
       Mesh    7
       Max CFL number:  0.12E-01 at (   1,   1,  32)
       Max divergence: -0.21E-05 at (  32,   1,  23)
       Min divergence: -0.41E-05 at (   4,   1,   2)
       Max VN number:   0.43E-02 at (  32,   1,  32)
       Mesh    8
       Max CFL number:  0.53E-01 at (  32,   1,  32)
       Max divergence:  0.77E-05 at (  32,   1,  32)
       Min divergence: -0.13E-05 at (   1,   1,   1)
       Max VN number:   0.43E-02 at (   1,   1,  32)
       Mesh    9
       Max CFL number:  0.53E-01 at (   1,   1,   1)
       Max divergence:  0.87E-05 at (   1,   1,   1)
       Min divergence: -0.12E-06 at (  32,   1,  32)
       Max VN number:   0.43E-02 at (   1,   1,  32)
       Mesh   10
       Max CFL number:  0.12E-01 at (  32,   1,   1)
       Max divergence: -0.21E-06 at (   1,   1,   1)
       Min divergence: -0.23E-05 at (  18,   1,  31)
       Max VN number:   0.43E-02 at (   1,   1,  32)
       Mesh   11
       Max CFL number:  0.86E-01 at (  32,   1,   1)
       Max divergence:  0.57E-05 at (  32,   1,   1)
       Min divergence: -0.17E-05 at (   1,   1,   1)
       Max VN number:   0.43E-02 at (  32,   1,  32)
       Mesh   12
       Max CFL number:  0.16E-01 at (  32,   1,   1)
       Max divergence: -0.43E-06 at (   9,   1,   1)
       Min divergence: -0.18E-05 at (   3,   1,  32)
       Max VN number:   0.43E-02 at (  16,   1,  32)
       Mesh   13
       Max CFL number:  0.53E-01 at (   1,   1,   1)
       Max divergence:  0.72E-06 at (   1,   1,   2)
       Min divergence: -0.17E-05 at (   9,   1,  32)
       Max VN number:   0.43E-02 at (  32,   1,  32)
       Mesh   14
       Max CFL number:  0.16E-01 at (   5,   1,   1)
       Max divergence: -0.77E-08 at (  14,   1,   1)
       Min divergence: -0.19E-05 at (   1,   1,  31)
       Max VN number:   0.43E-02 at (  31,   1,  32)
       Mesh   15
       Max CFL number:  0.16E-01 at (   1,   1,  12)
       Max divergence: -0.15E-05 at (  32,   1,   1)
       Min divergence: -0.24E-05 at (   1,   1,  21)
       Max VN number:   0.43E-02 at (  32,   1,  32)
       Mesh   16
       Max CFL number:  0.15E-01 at (   1,   1,   1)
       Max divergence: -0.78E-06 at (  32,   1,  32)
       Min divergence: -0.19E-05 at (   2,   1,   2)
       Max VN number:   0.43E-02 at (  22,   1,  32)
 
       Time Step       8   February 20, 2020  15:37:09
       Step Size:    0.200E-02 s, Total Time:       0.02 s
       Pressure Iterations:      1
       Maximum Velocity Error:  0.62E-16 on Mesh  13 at (  33   1   1)
       Maximum Pressure Error:  0.19E+06 on Mesh   1 at (  25   1  25)
       ScaRC: iterations   132, residual  0.65E-08, convergence rate   0.83E+00
       ---------------------------------------------------------------
       Mesh    1
       Max CFL number:  0.13E+00 at (   1,   1,  25)
       Max divergence: -0.79E-07 at (  19,   1,  32)
       Min divergence: -0.16E-04 at (   1,   1,  24)
       Max VN number:   0.43E-02 at (   1,   1,  32)
       Mesh    2
       Max CFL number:  0.13E+00 at (   1,   1,   8)
       Max divergence:  0.16E-04 at (   1,   1,   9)
       Min divergence: -0.15E-05 at (  32,   1,  32)
       Max VN number:   0.43E-02 at (   1,   1,  32)
       Mesh    3
       Max CFL number:  0.69E-01 at (   9,   1,  24)
       Max divergence:  0.65E-05 at (   9,   1,  25)
       Min divergence: -0.90E-06 at (  32,   1,   1)
       Max VN number:   0.43E-02 at (   9,   1,  32)
       Mesh    4
       Max CFL number:  0.62E-01 at (  32,   1,  32)
       Max divergence:  0.20E-05 at (  32,   1,  31)
       Min divergence: -0.59E-05 at (   9,   1,   8)
       Max VN number:   0.43E-02 at (   2,   1,  32)
       Mesh    5
       Max CFL number:  0.17E-01 at (   4,   1,  32)
       Max divergence: -0.28E-07 at (  32,   1,  32)
       Min divergence: -0.15E-05 at (   8,   1,   1)
       Max VN number:   0.43E-02 at (   1,   1,  32)
       Mesh    6
       Max CFL number:  0.10E+00 at (   1,   1,  32)
       Max divergence:  0.88E-05 at (   1,   1,  32)
       Min divergence: -0.18E-06 at (   1,   1,   2)
       Max VN number:   0.43E-02 at (  27,   1,  32)
       Mesh    7
       Max CFL number:  0.14E-01 at (   1,   1,  32)
       Max divergence: -0.18E-05 at (  32,   1,  32)
       Min divergence: -0.38E-05 at (   4,   1,   2)
       Max VN number:   0.43E-02 at (  32,   1,  32)
       Mesh    8
       Max CFL number:  0.61E-01 at (  32,   1,  32)
       Max divergence:  0.97E-05 at (  32,   1,  32)
       Min divergence: -0.10E-05 at (   1,   1,   1)
       Max VN number:   0.43E-02 at (   1,   1,  32)
       Mesh    9
       Max CFL number:  0.60E-01 at (   1,   1,   1)
       Max divergence:  0.10E-04 at (   1,   1,   1)
       Min divergence:  0.29E-06 at (  32,   1,  32)
       Max VN number:   0.43E-02 at (   1,   1,  32)
       Mesh   10
       Max CFL number:  0.14E-01 at (  32,   1,   1)
       Max divergence:  0.60E-07 at (   1,   1,   1)
       Min divergence: -0.23E-05 at (  18,   1,  31)
       Max VN number:   0.43E-02 at (   1,   1,  32)
       Mesh   11
       Max CFL number:  0.99E-01 at (  32,   1,   1)
       Max divergence:  0.71E-05 at (  32,   1,   1)
       Min divergence: -0.13E-05 at (   1,   1,   1)
       Max VN number:   0.43E-02 at (  32,   1,  32)
       Mesh   12
       Max CFL number:  0.18E-01 at (  32,   1,   1)
       Max divergence: -0.48E-06 at (   8,   1,   1)
       Min divergence: -0.19E-05 at (   3,   1,  32)
       Max VN number:   0.43E-02 at (  18,   1,  32)
       Mesh   13
       Max CFL number:  0.60E-01 at (   1,   1,   1)
       Max divergence:  0.13E-05 at (   1,   1,   2)
       Min divergence: -0.12E-05 at (   9,   1,  32)
       Max VN number:   0.43E-02 at (  32,   1,  32)
       Mesh   14
       Max CFL number:  0.18E-01 at (   5,   1,   1)
       Max divergence:  0.19E-06 at (  17,   1,   1)
       Min divergence: -0.17E-05 at (   1,   1,  31)
       Max VN number:   0.43E-02 at (  31,   1,  32)
       Mesh   15
       Max CFL number:  0.18E-01 at (   1,   1,  12)
       Max divergence: -0.14E-05 at (  32,   1,   1)
       Min divergence: -0.22E-05 at (   1,   1,  20)
       Max VN number:   0.43E-02 at (  32,   1,  32)
       Mesh   16
       Max CFL number:  0.17E-01 at (   1,   1,   1)
       Max divergence: -0.96E-06 at (  32,   1,  32)
       Min divergence: -0.17E-05 at (   2,   1,   3)
       Max VN number:   0.43E-02 at (  24,   1,  32)
 
       Time Step       9   February 20, 2020  15:37:09
       Step Size:    0.200E-02 s, Total Time:       0.02 s
       Pressure Iterations:      1
       Maximum Velocity Error:  0.62E-16 on Mesh  13 at (  33   1   1)
       Maximum Pressure Error:  0.19E+06 on Mesh   1 at (  25   1  25)
       ScaRC: iterations   132, residual  0.73E-08, convergence rate   0.83E+00
       ---------------------------------------------------------------
       Mesh    1
       Max CFL number:  0.15E+00 at (   1,   1,  25)
       Max divergence: -0.72E-07 at (  19,   1,  32)
       Min divergence: -0.17E-04 at (   1,   1,  24)
       Max VN number:   0.43E-02 at (   1,   1,  32)
       Mesh    2
       Max CFL number:  0.15E+00 at (   1,   1,   8)
       Max divergence:  0.17E-04 at (   1,   1,   9)
       Min divergence: -0.15E-05 at (  32,   1,  32)
       Max VN number:   0.43E-02 at (   1,   1,  32)
       Mesh    3
       Max CFL number:  0.77E-01 at (   9,   1,  24)
       Max divergence:  0.73E-05 at (   9,   1,  25)
       Min divergence: -0.90E-06 at (  32,   1,   1)
       Max VN number:   0.43E-02 at (   9,   1,  32)
       Mesh    4
       Max CFL number:  0.71E-01 at (  32,   1,  32)
       Max divergence:  0.24E-05 at (  32,   1,  31)
       Min divergence: -0.65E-05 at (   9,   1,   8)
       Max VN number:   0.43E-02 at (   2,   1,  32)
       Mesh    5
       Max CFL number:  0.19E-01 at (   4,   1,  32)
       Max divergence:  0.18E-06 at (  32,   1,  32)
       Min divergence: -0.15E-05 at (   8,   1,   1)
       Max VN number:   0.43E-02 at (   1,   1,  32)
       Mesh    6
       Max CFL number:  0.11E+00 at (   1,   1,  32)
       Max divergence:  0.99E-05 at (   1,   1,  32)
       Min divergence: -0.41E-07 at (   1,   1,   2)
       Max VN number:   0.43E-02 at (  27,   1,  32)
       Mesh    7
       Max CFL number:  0.16E-01 at (   1,   1,  32)
       Max divergence: -0.15E-05 at (  32,   1,  32)
       Min divergence: -0.38E-05 at (   4,   1,   2)
       Max VN number:   0.43E-02 at (  32,   1,  32)
       Mesh    8
       Max CFL number:  0.69E-01 at (  32,   1,  32)
       Max divergence:  0.11E-04 at (  32,   1,  32)
       Min divergence: -0.80E-06 at (   1,   1,   1)
       Max VN number:   0.43E-02 at (   1,   1,  32)
       Mesh    9
       Max CFL number:  0.67E-01 at (   1,   1,   1)
       Max divergence:  0.12E-04 at (   1,   1,   1)
       Min divergence:  0.50E-06 at (  32,   1,  32)
       Max VN number:   0.43E-02 at (   1,   1,  32)
       Mesh   10
       Max CFL number:  0.16E-01 at (  32,   1,   1)
       Max divergence:  0.32E-06 at (   1,   1,   1)
       Min divergence: -0.23E-05 at (  18,   1,  31)
       Max VN number:   0.43E-02 at (   1,   1,  32)
       Mesh   11
       Max CFL number:  0.11E+00 at (  32,   1,   1)
       Max divergence:  0.84E-05 at (  32,   1,   1)
       Min divergence: -0.89E-06 at (   1,   1,   1)
       Max VN number:   0.43E-02 at (  32,   1,  32)
       Mesh   12
       Max CFL number:  0.20E-01 at (  32,   1,   1)
       Max divergence: -0.28E-06 at (   8,   1,   1)
       Min divergence: -0.19E-05 at (   3,   1,  32)
       Max VN number:   0.43E-02 at (  19,   1,  32)
       Mesh   13
       Max CFL number:  0.68E-01 at (   1,   1,   1)
       Max divergence:  0.17E-05 at (   1,   1,   2)
       Min divergence: -0.11E-05 at (   9,   1,  32)
       Max VN number:   0.43E-02 at (  32,   1,  32)
       Mesh   14
       Max CFL number:  0.20E-01 at (   5,   1,   1)
       Max divergence:  0.27E-06 at (  15,   1,   1)
       Min divergence: -0.17E-05 at (   1,   1,  31)
       Max VN number:   0.43E-02 at (  31,   1,  32)
       Mesh   15
       Max CFL number:  0.20E-01 at (   1,   1,  12)
       Max divergence: -0.14E-05 at (  32,   1,   1)
       Min divergence: -0.22E-05 at (   1,   1,   2)
       Max VN number:   0.43E-02 at (  32,   1,  32)
       Mesh   16
       Max CFL number:  0.19E-01 at (   1,   1,   1)
       Max divergence: -0.96E-06 at (  32,   1,  32)
       Min divergence: -0.17E-05 at (   4,   1,   3)
       Max VN number:   0.43E-02 at (  32,   1,  32)
 
       Time Step      10   February 20, 2020  15:37:09
       Step Size:    0.200E-02 s, Total Time:       0.02 s
       Pressure Iterations:      1
       Maximum Velocity Error:  0.69E-16 on Mesh  13 at (  33   1   3)
       Maximum Pressure Error:  0.19E+06 on Mesh   1 at (  25   1  25)
       ScaRC: iterations   132, residual  0.82E-08, convergence rate   0.83E+00
       ---------------------------------------------------------------
       Mesh    1
       Max CFL number:  0.16E+00 at (   1,   1,  25)
       Max divergence: -0.59E-07 at (  19,   1,  32)
       Min divergence: -0.19E-04 at (   1,   1,  24)
       Max VN number:   0.43E-02 at (   1,   1,  32)
       Mesh    2
       Max CFL number:  0.16E+00 at (   1,   1,   8)
       Max divergence:  0.19E-04 at (   1,   1,   9)
       Min divergence: -0.77E-06 at (  32,   1,  32)
       Max VN number:   0.43E-02 at (   1,   1,  32)
       Mesh    3
       Max CFL number:  0.86E-01 at (   9,   1,  24)
       Max divergence:  0.78E-05 at (   9,   1,  25)
       Min divergence: -0.10E-05 at (  32,   1,   1)
       Max VN number:   0.43E-02 at (   9,   1,  32)
       Mesh    4
       Max CFL number:  0.79E-01 at (  32,   1,  32)
       Max divergence:  0.32E-05 at (  32,   1,  31)
       Min divergence: -0.70E-05 at (   9,   1,   8)
       Max VN number:   0.43E-02 at (   2,   1,  32)
       Mesh    5
       Max CFL number:  0.22E-01 at (   4,   1,  32)
       Max divergence:  0.79E-06 at (  31,   1,  32)
       Min divergence: -0.12E-05 at (  32,   1,   1)
       Max VN number:   0.43E-02 at (   1,   1,  32)
       Mesh    6
       Max CFL number:  0.12E+00 at (   1,   1,  32)
       Max divergence:  0.11E-04 at (   1,   1,  32)
       Min divergence:  0.56E-06 at (  32,   1,   1)
       Max VN number:   0.43E-02 at (  28,   1,  32)
       Mesh    7
       Max CFL number:  0.18E-01 at (   1,   1,  32)
       Max divergence:  0.23E-06 at (  32,   1,  32)
       Min divergence: -0.23E-05 at (   2,   1,   2)
       Max VN number:   0.43E-02 at (  32,   1,  32)
       Mesh    8
       Max CFL number:  0.77E-01 at (  32,   1,  32)
       Max divergence:  0.13E-04 at (  32,   1,  32)
       Min divergence:  0.55E-06 at (   1,   1,   1)
       Max VN number:   0.43E-02 at (   1,   1,  32)
       Mesh    9
       Max CFL number:  0.75E-01 at (   1,   1,   1)
       Max divergence:  0.14E-04 at (   1,   1,   1)
       Min divergence:  0.10E-05 at (  32,   1,  32)
       Max VN number:   0.43E-02 at (   1,   1,  32)
       Mesh   10
       Max CFL number:  0.18E-01 at (  32,   1,   1)
       Max divergence:  0.16E-05 at (   1,   1,   1)
       Min divergence: -0.17E-05 at (  18,   1,  32)
       Max VN number:   0.43E-02 at (   1,   1,  32)
       Mesh   11
       Max CFL number:  0.12E+00 at (  32,   1,   1)
       Max divergence:  0.11E-04 at (  32,   1,   1)
       Min divergence: -0.20E-06 at (  32,   1,  32)
       Max VN number:   0.43E-02 at (  32,   1,  32)
       Mesh   12
       Max CFL number:  0.22E-01 at (  32,   1,   1)
       Max divergence: -0.59E-07 at (  24,   1,   1)
       Min divergence: -0.20E-05 at (  15,   1,  32)
       Max VN number:   0.43E-02 at (  20,   1,  32)
       Mesh   13
       Max CFL number:  0.75E-01 at (   1,   1,   1)
       Max divergence:  0.19E-05 at (   1,   1,   2)
       Min divergence: -0.85E-06 at (  19,   1,  31)
       Max VN number:   0.43E-02 at (  32,   1,  32)
       Mesh   14
       Max CFL number:  0.22E-01 at (   5,   1,   1)
       Max divergence:  0.25E-06 at (  23,   1,   1)
       Min divergence: -0.17E-05 at (   7,   1,  31)
       Max VN number:   0.43E-02 at (  31,   1,  32)
       Mesh   15
       Max CFL number:  0.22E-01 at (   1,   1,  12)
       Max divergence: -0.90E-06 at (  32,   1,  32)
       Min divergence: -0.15E-05 at (   1,   1,  11)
       Max VN number:   0.43E-02 at (  32,   1,  32)
       Mesh   16
       Max CFL number:  0.21E-01 at (   1,   1,   1)
       Max divergence: -0.44E-06 at (  32,   1,  27)
       Min divergence: -0.11E-05 at (  32,   1,   1)
       Max VN number:   0.43E-02 at (  32,   1,  32)
 
       Time Step      20   February 20, 2020  15:37:10
       Step Size:    0.200E-02 s, Total Time:       0.04 s
       Pressure Iterations:      1
       Maximum Velocity Error:  0.83E-16 on Mesh  13 at (  33   1   4)
       Maximum Pressure Error:  0.19E+06 on Mesh   1 at (  25   1  25)
       ScaRC: iterations   135, residual  0.82E-08, convergence rate   0.82E+00
       ---------------------------------------------------------------
       Mesh    1
       Max CFL number:  0.28E+00 at (   1,   1,  25)
       Max divergence:  0.72E-07 at (  18,   1,  32)
       Min divergence: -0.31E-04 at (   2,   1,  24)
       Max VN number:   0.43E-02 at (   3,   1,  32)
       Mesh    2
       Max CFL number:  0.28E+00 at (   1,   1,   8)
       Max divergence:  0.31E-04 at (   2,   1,   9)
       Min divergence: -0.20E-07 at (  32,   1,  32)
       Max VN number:   0.43E-02 at (   1,   1,  32)
       Mesh    3
       Max CFL number:  0.16E+00 at (   9,   1,  24)
       Max divergence:  0.13E-04 at (   9,   1,  25)
       Min divergence: -0.12E-05 at (   1,   1,   7)
       Max VN number:   0.43E-02 at (   9,   1,  32)
       Mesh    4
       Max CFL number:  0.17E+00 at (  32,   1,  32)
       Max divergence:  0.78E-05 at (  32,   1,  31)
       Min divergence: -0.12E-04 at (   9,   1,   8)
       Max VN number:   0.43E-02 at (   4,   1,  32)
       Mesh    5
       Max CFL number:  0.43E-01 at (   4,   1,  32)
       Max divergence:  0.28E-05 at (  32,   1,  32)
       Min divergence: -0.91E-06 at (   1,   1,   1)
       Max VN number:   0.43E-02 at (   1,   1,  32)
       Mesh    6
       Max CFL number:  0.25E+00 at (   1,   1,  32)
       Max divergence:  0.23E-04 at (   1,   1,  32)
       Min divergence:  0.24E-05 at (   1,   1,   2)
       Max VN number:   0.43E-02 at (  27,   1,  32)
       Mesh    7
       Max CFL number:  0.35E-01 at (   1,   1,  32)
       Max divergence:  0.49E-05 at (  32,   1,  32)
       Min divergence: -0.86E-07 at (   1,   1,   1)
       Max VN number:   0.43E-02 at (  32,   1,  32)
       Mesh    8
       Max CFL number:  0.16E+00 at (  32,   1,  32)
       Max divergence:  0.29E-04 at (  32,   1,  32)
       Min divergence:  0.40E-05 at (   1,   1,   2)
       Max VN number:   0.43E-02 at (   1,   1,  32)
       Mesh    9
       Max CFL number:  0.14E+00 at (   1,   1,   1)
       Max divergence:  0.26E-04 at (   1,   1,   1)
       Min divergence:  0.39E-05 at (  32,   1,  32)
       Max VN number:   0.43E-02 at (   1,   1,  32)
       Mesh   10
       Max CFL number:  0.35E-01 at (  32,   1,   1)
       Max divergence:  0.49E-05 at (   1,   1,   1)
       Min divergence: -0.10E-06 at (  32,   1,  32)
       Max VN number:   0.43E-02 at (   1,   1,  32)
       Mesh   11
       Max CFL number:  0.24E+00 at (  32,   1,   1)
       Max divergence:  0.27E-04 at (  32,   1,   1)
       Min divergence:  0.23E-05 at (  32,   1,  32)
       Max VN number:   0.43E-02 at (  32,   1,  32)
       Mesh   12
       Max CFL number:  0.45E-01 at (  32,   1,   1)
       Max divergence:  0.33E-05 at (   1,   1,   1)
       Min divergence: -0.63E-06 at (   1,   1,  32)
       Max VN number:   0.43E-02 at (  10,   1,  32)
       Mesh   13
       Max CFL number:  0.14E+00 at (   1,   1,   1)
       Max divergence:  0.66E-05 at (   1,   1,   3)
       Min divergence: -0.26E-06 at (  32,   1,   3)
       Max VN number:   0.43E-02 at (  32,   1,  32)
       Mesh   14
       Max CFL number:  0.45E-01 at (   5,   1,   1)
       Max divergence:  0.14E-05 at (   1,   1,   1)
       Min divergence: -0.15E-05 at (   1,   1,  32)
       Max VN number:   0.43E-02 at (  32,   1,  32)
       Mesh   15
       Max CFL number:  0.44E-01 at (   1,   1,  12)
       Max divergence: -0.35E-07 at (   2,   1,   1)
       Min divergence: -0.74E-06 at (  32,   1,  22)
       Max VN number:   0.43E-02 at (  32,   1,  32)
       Mesh   16
       Max CFL number:  0.42E-01 at (   1,   1,   1)
       Max divergence:  0.44E-06 at (   1,   1,   1)
       Min divergence: -0.11E-05 at (   1,   1,  31)
       Max VN number:   0.43E-02 at (  32,   1,  32)
 
       Time Step      30   February 20, 2020  15:37:11
       Step Size:    0.200E-02 s, Total Time:       0.06 s
       Pressure Iterations:      1
       Maximum Velocity Error:  0.11E-15 on Mesh   8 at (  32   1  33)
       Maximum Pressure Error:  0.18E+06 on Mesh   1 at (  25   1  25)
       ScaRC: iterations   137, residual  0.94E-08, convergence rate   0.82E+00
       ---------------------------------------------------------------
       Mesh    1
       Max CFL number:  0.35E+00 at (   1,   1,  25)
       Max divergence:  0.85E-06 at (  26,   1,  24)
       Min divergence: -0.42E-04 at (  24,   1,  24)
       Max VN number:   0.43E-02 at (   5,   1,  32)
       Mesh    2
       Max CFL number:  0.35E+00 at (   1,   1,   8)
       Max divergence:  0.47E-04 at (  24,   1,   9)
       Min divergence: -0.16E-05 at (  26,   1,   9)
       Max VN number:   0.43E-02 at (   1,   1,  32)
       Mesh    3
       Max CFL number:  0.24E+00 at (  10,   1,  24)
       Max divergence:  0.21E-04 at (  10,   1,  25)
       Min divergence: -0.83E-06 at (   1,   1,  10)
       Max VN number:   0.43E-02 at (   9,   1,  32)
       Mesh    4
       Max CFL number:  0.26E+00 at (  32,   1,  32)
       Max divergence:  0.14E-04 at (  32,   1,  31)
       Min divergence: -0.16E-04 at (  10,   1,   8)
       Max VN number:   0.43E-02 at (   5,   1,  32)
       Mesh    5
       Max CFL number:  0.64E-01 at (   4,   1,  32)
       Max divergence:  0.59E-05 at (  32,   1,  32)
       Min divergence: -0.39E-07 at (   1,   1,   1)
       Max VN number:   0.43E-02 at (   1,   1,  32)
       Mesh    6
       Max CFL number:  0.36E+00 at (   1,   1,  32)
       Max divergence:  0.32E-04 at (   1,   1,  32)
       Min divergence:  0.40E-05 at (   1,   1,   2)
       Max VN number:   0.43E-02 at (   1,   1,  32)
       Mesh    7
       Max CFL number:  0.52E-01 at (   1,   1,  32)
       Max divergence:  0.74E-05 at (  32,   1,  32)
       Min divergence:  0.46E-07 at (   1,   1,   1)
       Max VN number:   0.43E-02 at (  32,   1,  32)
       Mesh    8
       Max CFL number:  0.26E+00 at (  32,   1,  32)
       Max divergence:  0.44E-04 at (  32,   1,  32)
       Min divergence:  0.62E-05 at (   1,   1,   1)
       Max VN number:   0.43E-02 at (   1,   1,  32)
       Mesh    9
       Max CFL number:  0.20E+00 at (   1,   1,   1)
       Max divergence:  0.36E-04 at (   1,   1,   1)
       Min divergence:  0.61E-05 at (  32,   1,  32)
       Max VN number:   0.43E-02 at (   1,   1,  32)
       Mesh   10
       Max CFL number:  0.52E-01 at (  32,   1,   1)
       Max divergence:  0.74E-05 at (   1,   1,   1)
       Min divergence:  0.33E-07 at (  32,   1,  32)
       Max VN number:   0.43E-02 at (   1,   1,  32)
       Mesh   11
       Max CFL number:  0.36E+00 at (  32,   1,   1)
       Max divergence:  0.44E-04 at (  32,   1,   1)
       Min divergence:  0.39E-05 at (  32,   1,  32)
       Max VN number:   0.43E-02 at (  32,   1,  32)
       Mesh   12
       Max CFL number:  0.66E-01 at (  32,   1,   1)
       Max divergence:  0.59E-05 at (   1,   1,   1)
       Min divergence: -0.67E-07 at (  32,   1,  32)
       Max VN number:   0.43E-02 at (  11,   1,  32)
       Mesh   13
       Max CFL number:  0.20E+00 at (   1,   1,   1)
       Max divergence:  0.13E-04 at (   1,   1,   2)
       Min divergence: -0.27E-07 at (  32,   1,   1)
       Max VN number:   0.43E-02 at (  32,   1,  32)
       Mesh   14
       Max CFL number:  0.66E-01 at (   5,   1,   1)
       Max divergence:  0.32E-05 at (   1,   1,   1)
       Min divergence: -0.46E-06 at (  32,   1,  31)
       Max VN number:   0.43E-02 at (  32,   1,  32)
       Mesh   15
       Max CFL number:  0.65E-01 at (   1,   1,  12)
       Max divergence:  0.54E-06 at (   1,   1,  17)
       Min divergence: -0.24E-06 at (  32,   1,  32)
       Max VN number:   0.43E-02 at (  32,   1,  32)
       Mesh   16
       Max CFL number:  0.62E-01 at (   1,   1,   1)
       Max divergence:  0.12E-07 at (   1,   1,   1)
       Min divergence: -0.75E-06 at (   1,   1,  31)
       Max VN number:   0.43E-02 at (  32,   1,  32)
 
       Time Step      40   February 20, 2020  15:37:12
       Step Size:    0.200E-02 s, Total Time:       0.08 s
       Pressure Iterations:      1
       Maximum Velocity Error:  0.11E-15 on Mesh  13 at (  33   1  16)
       Maximum Pressure Error:  0.17E+06 on Mesh   1 at (  25   1  25)
       ScaRC: iterations   138, residual  0.62E-08, convergence rate   0.82E+00
       ---------------------------------------------------------------
       Mesh    1
       Max CFL number:  0.41E+00 at (   1,   1,  25)
       Max divergence:  0.36E-05 at (  27,   1,  23)
       Min divergence: -0.55E-04 at (  24,   1,  24)
       Max VN number:   0.43E-02 at (   6,   1,  32)
       Mesh    2
       Max CFL number:  0.44E+00 at (  24,   1,  10)
       Max divergence:  0.60E-04 at (  24,   1,  10)
       Min divergence: -0.45E-05 at (  27,   1,  10)
       Max VN number:   0.43E-02 at (   1,   1,  32)
       Mesh    3
       Max CFL number:  0.32E+00 at (  10,   1,  24)
       Max divergence:  0.28E-04 at (  10,   1,  25)
       Min divergence: -0.66E-06 at (   1,   1,  11)
       Max VN number:   0.43E-02 at (   9,   1,  32)
       Mesh    4
       Max CFL number:  0.33E+00 at (  32,   1,  32)
       Max divergence:  0.18E-04 at (  32,   1,  31)
       Min divergence: -0.21E-04 at (  10,   1,   8)
       Max VN number:   0.43E-02 at (   7,   1,  32)
       Mesh    5
       Max CFL number:  0.83E-01 at (   4,   1,  32)
       Max divergence:  0.79E-05 at (  32,   1,  32)
       Min divergence:  0.74E-07 at (   1,   1,   1)
       Max VN number:   0.43E-02 at (   1,   1,  32)
       Mesh    6
       Max CFL number:  0.46E+00 at (   1,   1,  32)
       Max divergence:  0.43E-04 at (   1,   1,  32)
       Min divergence:  0.54E-05 at (   1,   1,   2)
       Max VN number:   0.43E-02 at (   1,   1,  32)
       Mesh    7
       Max CFL number:  0.68E-01 at (   1,   1,  32)
       Max divergence:  0.97E-05 at (  32,   1,  32)
       Min divergence:  0.11E-06 at (   1,   1,   1)
       Max VN number:   0.43E-02 at (   1,   1,  32)
       Mesh    8
       Max CFL number:  0.34E+00 at (  32,   1,  32)
       Max divergence:  0.57E-04 at (  32,   1,  32)
       Min divergence:  0.82E-05 at (   1,   1,   1)
       Max VN number:   0.43E-02 at (   1,   1,  32)
       Mesh    9
       Max CFL number:  0.28E+00 at (   1,   1,   1)
       Max divergence:  0.44E-04 at (   1,   1,   1)
       Min divergence:  0.82E-05 at (  32,   1,  32)
       Max VN number:   0.43E-02 at (   1,   1,  32)
       Mesh   10
       Max CFL number:  0.68E-01 at (  32,   1,   1)
       Max divergence:  0.96E-05 at (   2,   1,   1)
       Min divergence:  0.12E-06 at (  32,   1,  32)
       Max VN number:   0.43E-02 at (   1,   1,  32)
       Mesh   11
       Max CFL number:  0.47E+00 at (  32,   1,   1)
       Max divergence:  0.59E-04 at (  32,   1,   1)
       Min divergence:  0.53E-05 at (  32,   1,  32)
       Max VN number:   0.43E-02 at (  32,   1,  32)
       Mesh   12
       Max CFL number:  0.86E-01 at (  32,   1,   1)
       Max divergence:  0.79E-05 at (   1,   1,   1)
       Min divergence:  0.87E-07 at (  32,   1,  32)
       Max VN number:   0.43E-02 at (  11,   1,  32)
       Mesh   13
       Max CFL number:  0.29E+00 at (   1,   1,   1)
       Max divergence:  0.32E-04 at (   1,   1,   2)
       Min divergence: -0.13E-05 at (   1,   1,   1)
       Max VN number:   0.43E-02 at (  32,   1,  32)
       Mesh   14
       Max CFL number:  0.86E-01 at (   5,   1,   1)
       Max divergence:  0.50E-05 at (   1,   1,   1)
       Min divergence: -0.12E-07 at (  32,   1,  31)
       Max VN number:   0.43E-02 at (  32,   1,  32)
       Mesh   15
       Max CFL number:  0.85E-01 at (   1,   1,  12)
       Max divergence:  0.12E-05 at (   1,   1,  27)
       Min divergence: -0.57E-07 at (  32,   1,   3)
       Max VN number:   0.43E-02 at (  32,   1,  32)
       Mesh   16
       Max CFL number:  0.81E-01 at (   1,   1,   1)
       Max divergence:  0.70E-06 at (   1,   1,   1)
       Min divergence: -0.56E-06 at (  25,   1,  31)
       Max VN number:   0.43E-02 at (  32,   1,  32)
 
       Time Step      50   February 20, 2020  15:37:13
       Step Size:    0.160E-02 s, Total Time:       0.10 s
       Pressure Iterations:      1
       Maximum Velocity Error:  0.11E-15 on Mesh   6 at (   3   1  33)
       Maximum Pressure Error:  0.17E+06 on Mesh   1 at (  25   1  25)
       ScaRC: iterations   138, residual  0.64E-08, convergence rate   0.82E+00
       ---------------------------------------------------------------
       Mesh    1
       Max CFL number:  0.38E+00 at (   1,   1,  25)
       Max divergence:  0.65E-05 at (  28,   1,  23)
       Min divergence: -0.63E-04 at (  24,   1,  24)
       Max VN number:   0.34E-02 at (   8,   1,  32)
       Mesh    2
       Max CFL number:  0.40E+00 at (  24,   1,  10)
       Max divergence:  0.70E-04 at (  24,   1,   9)
       Min divergence: -0.82E-05 at (  28,   1,  10)
       Max VN number:   0.34E-02 at (   1,   1,  32)
       Mesh    3
       Max CFL number:  0.28E+00 at (  10,   1,  24)
       Max divergence:  0.33E-04 at (  11,   1,  25)
       Min divergence: -0.15E-05 at (   9,   1,  26)
       Max VN number:   0.34E-02 at (   9,   1,  32)
       Mesh    4
       Max CFL number:  0.32E+00 at (  32,   1,  32)
       Max divergence:  0.21E-04 at (  32,   1,  31)
       Min divergence: -0.23E-04 at (  11,   1,   8)
       Max VN number:   0.34E-02 at (   8,   1,  32)
       Mesh    5
       Max CFL number:  0.81E-01 at (   4,   1,  32)
       Max divergence:  0.96E-05 at (  32,   1,  32)
       Min divergence:  0.12E-06 at (   2,   1,   1)
       Max VN number:   0.34E-02 at (   1,   1,  32)
       Mesh    6
       Max CFL number:  0.45E+00 at (   1,   1,  32)
       Max divergence:  0.53E-04 at (   1,   1,  32)
       Min divergence:  0.66E-05 at (   1,   1,   2)
       Max VN number:   0.34E-02 at (   1,   1,  32)
       Mesh    7
       Max CFL number:  0.66E-01 at (   1,   1,  32)
       Max divergence:  0.12E-04 at (  32,   1,  32)
       Min divergence:  0.14E-06 at (   1,   1,   1)
       Max VN number:   0.34E-02 at (   1,   1,  32)
       Mesh    8
       Max CFL number:  0.32E+00 at (  32,   1,  32)
       Max divergence:  0.69E-04 at (  32,   1,  32)
       Min divergence:  0.10E-04 at (   1,   1,   1)
       Max VN number:   0.34E-02 at (   1,   1,  32)
       Mesh    9
       Max CFL number:  0.28E+00 at (   1,   1,   1)
       Max divergence:  0.53E-04 at (   1,   1,   1)
       Min divergence:  0.10E-04 at (  32,   1,  32)
       Max VN number:   0.34E-02 at (   1,   1,  32)
       Mesh   10
       Max CFL number:  0.66E-01 at (  32,   1,   1)
       Max divergence:  0.12E-04 at (   2,   1,   1)
       Min divergence:  0.19E-06 at (  32,   1,  32)
       Max VN number:   0.34E-02 at (   1,   1,  32)
       Mesh   11
       Max CFL number:  0.46E+00 at (  32,   1,   1)
       Max divergence:  0.70E-04 at (  32,   1,   1)
       Min divergence:  0.65E-05 at (  32,   1,  32)
       Max VN number:   0.34E-02 at (  32,   1,  32)
       Mesh   12
       Max CFL number:  0.83E-01 at (  32,   1,   1)
       Max divergence:  0.97E-05 at (   1,   1,   1)
       Min divergence:  0.15E-06 at (  32,   1,  32)
       Max VN number:   0.34E-02 at (  11,   1,  32)
       Mesh   13
       Max CFL number:  0.29E+00 at (   1,   1,   1)
       Max divergence:  0.46E-04 at (   1,   1,   2)
       Min divergence: -0.36E-05 at (   1,   1,   1)
       Max VN number:   0.34E-02 at (  32,   1,  32)
       Mesh   14
       Max CFL number:  0.84E-01 at (   5,   1,   1)
       Max divergence:  0.61E-05 at (   1,   1,   1)
       Min divergence:  0.59E-07 at (  32,   1,  31)
       Max VN number:   0.34E-02 at (  32,   1,  32)
       Mesh   15
       Max CFL number:  0.83E-01 at (   1,   1,  12)
       Max divergence:  0.16E-05 at (   1,   1,  27)
       Min divergence: -0.16E-07 at (  32,   1,   2)
       Max VN number:   0.34E-02 at (  32,   1,  32)
       Mesh   16
       Max CFL number:  0.78E-01 at (   1,   1,   1)
       Max divergence:  0.16E-05 at (   1,   1,   1)
       Min divergence: -0.27E-07 at (  32,   1,  31)
       Max VN number:   0.34E-02 at (  32,   1,  32)
 
       Time Step      60   February 20, 2020  15:37:14
       Step Size:    0.144E-02 s, Total Time:       0.11 s
       Pressure Iterations:      1
       Maximum Velocity Error:  0.11E-15 on Mesh   6 at (   1   1  33)
       Maximum Pressure Error:  0.15E+06 on Mesh   1 at (  25   1  25)
       ScaRC: iterations   141, residual  0.69E-08, convergence rate   0.82E+00
       ---------------------------------------------------------------
       Mesh    1
       Max CFL number:  0.39E+00 at (  24,   1,  23)
       Max divergence:  0.15E-04 at (   1,   1,  23)
       Min divergence: -0.74E-04 at (  24,   1,  24)
       Max VN number:   0.31E-02 at (  10,   1,  32)
       Mesh    2
       Max CFL number:  0.43E+00 at (  24,   1,  10)
       Max divergence:  0.80E-04 at (  24,   1,   9)
       Min divergence: -0.15E-04 at (   1,   1,  10)
       Max VN number:   0.31E-02 at (   1,   1,  32)
       Mesh    3
       Max CFL number:  0.27E+00 at (  10,   1,  24)
       Max divergence:  0.33E-04 at (  11,   1,  25)
       Min divergence: -0.93E-05 at (   9,   1,  26)
       Max VN number:   0.31E-02 at (   9,   1,  32)
       Mesh    4
       Max CFL number:  0.33E+00 at (  32,   1,  32)
       Max divergence:  0.25E-04 at (  32,   1,  31)
       Min divergence: -0.26E-04 at (  11,   1,   8)
       Max VN number:   0.31E-02 at (   9,   1,  32)
       Mesh    5
       Max CFL number:  0.81E-01 at (   4,   1,  32)
       Max divergence:  0.11E-04 at (  32,   1,  32)
       Min divergence:  0.15E-06 at (  16,   1,   1)
       Max VN number:   0.31E-02 at (   1,   1,  32)
       Mesh    6
       Max CFL number:  0.45E+00 at (   1,   1,  32)
       Max divergence:  0.58E-04 at (   1,   1,  32)
       Min divergence:  0.75E-05 at (   1,   1,   2)
       Max VN number:   0.31E-02 at (   1,   1,  32)
       Mesh    7
       Max CFL number:  0.67E-01 at (   1,   1,  32)
       Max divergence:  0.13E-04 at (  31,   1,  32)
       Min divergence:  0.16E-06 at (   1,   1,   1)
       Max VN number:   0.31E-02 at (   1,   1,  32)
       Mesh    8
       Max CFL number:  0.33E+00 at (  32,   1,  32)
       Max divergence:  0.78E-04 at (  32,   1,  32)
       Min divergence:  0.11E-04 at (   1,   1,   1)
       Max VN number:   0.31E-02 at (   1,   1,  32)
       Mesh    9
       Max CFL number:  0.29E+00 at (   1,   1,   1)
       Max divergence:  0.61E-04 at (   2,   1,   1)
       Min divergence:  0.11E-04 at (  32,   1,  32)
       Max VN number:   0.31E-02 at (  32,   1,  32)
       Mesh   10
       Max CFL number:  0.67E-01 at (  32,   1,   1)
       Max divergence:  0.13E-04 at (   2,   1,   1)
       Min divergence:  0.22E-06 at (  32,   1,  32)
       Max VN number:   0.31E-02 at (   1,   1,  32)
       Mesh   11
       Max CFL number:  0.46E+00 at (  32,   1,   1)
       Max divergence:  0.79E-04 at (  32,   1,   1)
       Min divergence:  0.73E-05 at (  32,   1,  32)
       Max VN number:   0.31E-02 at (  32,   1,  32)
       Mesh   12
       Max CFL number:  0.84E-01 at (  32,   1,   1)
       Max divergence:  0.11E-04 at (   1,   1,   1)
       Min divergence:  0.16E-06 at (  32,   1,  32)
       Max VN number:   0.31E-02 at (  12,   1,  32)
       Mesh   13
       Max CFL number:  0.29E+00 at (   1,   1,   1)
       Max divergence:  0.51E-04 at (   1,   1,   2)
       Min divergence: -0.39E-05 at (   1,   1,   1)
       Max VN number:   0.31E-02 at (  32,   1,  32)
       Mesh   14
       Max CFL number:  0.84E-01 at (   5,   1,   1)
       Max divergence:  0.69E-05 at (   1,   1,   1)
       Min divergence:  0.96E-07 at (  32,   1,  32)
       Max VN number:   0.31E-02 at (  32,   1,  32)
       Mesh   15
       Max CFL number:  0.83E-01 at (   1,   1,  12)
       Max divergence:  0.19E-05 at (   1,   1,  28)
       Min divergence:  0.25E-08 at (  32,   1,   2)
       Max VN number:   0.31E-02 at (  32,   1,  32)
       Mesh   16
       Max CFL number:  0.79E-01 at (   1,   1,   1)
       Max divergence:  0.18E-05 at (   1,   1,   1)
       Min divergence: -0.40E-08 at (  32,   1,  31)
       Max VN number:   0.31E-02 at (  32,   1,  32)
 
       Time Step      70   February 20, 2020  15:37:15
       Step Size:    0.129E-02 s, Total Time:       0.13 s
       Pressure Iterations:      1
       Maximum Velocity Error:  0.11E-15 on Mesh   6 at (   1   1  33)
       Maximum Pressure Error:  0.13E+06 on Mesh   1 at (  25   1  25)
       ScaRC: iterations   139, residual  0.85E-08, convergence rate   0.82E+00
       ---------------------------------------------------------------
       Mesh    1
       Max CFL number:  0.38E+00 at (  24,   1,  23)
       Max divergence:  0.23E-04 at (   1,   1,  22)
       Min divergence: -0.79E-04 at (  24,   1,  24)
       Max VN number:   0.28E-02 at (  11,   1,  32)
       Mesh    2
       Max CFL number:  0.41E+00 at (  24,   1,  10)
       Max divergence:  0.87E-04 at (  24,   1,  10)
       Min divergence: -0.24E-04 at (   1,   1,  11)
       Max VN number:   0.28E-02 at (   1,   1,  32)
       Mesh    3
       Max CFL number:  0.27E+00 at (  11,   1,  24)
       Max divergence:  0.39E-04 at (  11,   1,  25)
       Min divergence: -0.18E-04 at (   9,   1,  26)
       Max VN number:   0.28E-02 at (   9,   1,  32)
       Mesh    4
       Max CFL number:  0.32E+00 at (  32,   1,  32)
       Max divergence:  0.27E-04 at (  32,   1,  31)
       Min divergence: -0.27E-04 at (  11,   1,   9)
       Max VN number:   0.28E-02 at (  10,   1,  32)
       Mesh    5
       Max CFL number:  0.80E-01 at (   4,   1,  32)
       Max divergence:  0.12E-04 at (  32,   1,  32)
       Min divergence:  0.17E-06 at (   4,   1,   1)
       Max VN number:   0.28E-02 at (   1,   1,  32)
       Mesh    6
       Max CFL number:  0.44E+00 at (   1,   1,  32)
       Max divergence:  0.65E-04 at (   1,   1,  32)
       Min divergence:  0.82E-05 at (   1,   1,   2)
       Max VN number:   0.28E-02 at (   1,   1,  32)
       Mesh    7
       Max CFL number:  0.66E-01 at (   1,   1,  32)
       Max divergence:  0.14E-04 at (  31,   1,  32)
       Min divergence:  0.17E-06 at (   1,   1,   1)
       Max VN number:   0.28E-02 at (   1,   1,  32)
       Mesh    8
       Max CFL number:  0.32E+00 at (  32,   1,  32)
       Max divergence:  0.85E-04 at (  32,   1,  32)
       Min divergence:  0.12E-04 at (   1,   1,   2)
       Max VN number:   0.28E-02 at (   1,   1,  32)
       Mesh    9
       Max CFL number:  0.29E+00 at (   1,   1,   1)
       Max divergence:  0.66E-04 at (   2,   1,   1)
       Min divergence:  0.12E-04 at (  32,   1,  32)
       Max VN number:   0.28E-02 at (  32,   1,  32)
       Mesh   10
       Max CFL number:  0.66E-01 at (  32,   1,   1)
       Max divergence:  0.14E-04 at (   2,   1,   1)
       Min divergence:  0.24E-06 at (  32,   1,  32)
       Max VN number:   0.28E-02 at (   1,   1,  32)
       Mesh   11
       Max CFL number:  0.46E+00 at (  32,   1,   1)
       Max divergence:  0.86E-04 at (  32,   1,   1)
       Min divergence:  0.80E-05 at (  32,   1,  32)
       Max VN number:   0.28E-02 at (  32,   1,  32)
       Mesh   12
       Max CFL number:  0.83E-01 at (  32,   1,   1)
       Max divergence:  0.12E-04 at (   1,   1,   1)
       Min divergence:  0.18E-06 at (  32,   1,  32)
       Max VN number:   0.28E-02 at (  12,   1,  32)
       Mesh   13
       Max CFL number:  0.29E+00 at (   1,   1,   1)
       Max divergence:  0.57E-04 at (   1,   1,   2)
       Min divergence: -0.44E-05 at (   1,   1,   1)
       Max VN number:   0.28E-02 at (  32,   1,  32)
       Mesh   14
       Max CFL number:  0.83E-01 at (   5,   1,   1)
       Max divergence:  0.76E-05 at (   1,   1,   1)
       Min divergence:  0.10E-06 at (  32,   1,  32)
       Max VN number:   0.28E-02 at (  32,   1,  32)
       Mesh   15
       Max CFL number:  0.82E-01 at (   1,   1,  12)
       Max divergence:  0.20E-05 at (   1,   1,  28)
       Min divergence:  0.83E-08 at (  32,   1,   2)
       Max VN number:   0.28E-02 at (  32,   1,  32)
       Mesh   16
       Max CFL number:  0.78E-01 at (   1,   1,   1)
       Max divergence:  0.20E-05 at (   1,   1,   1)
       Min divergence:  0.32E-08 at (  32,   1,  31)
       Max VN number:   0.28E-02 at (  32,   1,  32)
 
       Time Step      80   February 20, 2020  15:37:16
       Step Size:    0.129E-02 s, Total Time:       0.14 s
       Pressure Iterations:      1
       Maximum Velocity Error:  0.22E-15 on Mesh   8 at (  32   1  33)
       Maximum Pressure Error:  0.15E+06 on Mesh   1 at (  25   1  25)
       ScaRC: iterations   141, residual  0.65E-08, convergence rate   0.82E+00
       ---------------------------------------------------------------
       Mesh    1
       Max CFL number:  0.40E+00 at (  24,   1,  23)
       Max divergence:  0.27E-04 at (   1,   1,  22)
       Min divergence: -0.83E-04 at (  24,   1,  23)
       Max VN number:   0.28E-02 at (  13,   1,  32)
       Mesh    2
       Max CFL number:  0.44E+00 at (  24,   1,  10)
       Max divergence:  0.90E-04 at (  24,   1,  10)
       Min divergence: -0.29E-04 at (   1,   1,  11)
       Max VN number:   0.28E-02 at (  32,   1,  32)
       Mesh    3
       Max CFL number:  0.31E+00 at (  11,   1,  24)
       Max divergence:  0.43E-04 at (  11,   1,  25)
       Min divergence: -0.24E-04 at (   9,   1,  26)
       Max VN number:   0.28E-02 at (   9,   1,  32)
       Mesh    4
       Max CFL number:  0.34E+00 at (  32,   1,  32)
       Max divergence:  0.29E-04 at (  32,   1,  31)
       Min divergence: -0.29E-04 at (  11,   1,   8)
       Max VN number:   0.28E-02 at (  11,   1,  32)
       Mesh    5
       Max CFL number:  0.86E-01 at (   5,   1,  32)
       Max divergence:  0.13E-04 at (  32,   1,  32)
       Min divergence:  0.18E-06 at (   5,   1,   1)
       Max VN number:   0.28E-02 at (   1,   1,  32)
       Mesh    6
       Max CFL number:  0.48E+00 at (   1,   1,  32)
       Max divergence:  0.70E-04 at (   1,   1,  32)
       Min divergence:  0.88E-05 at (   1,   1,   2)
       Max VN number:   0.28E-02 at (   1,   1,  32)
       Mesh    7
       Max CFL number:  0.71E-01 at (   1,   1,  32)
       Max divergence:  0.16E-04 at (  31,   1,  32)
       Min divergence:  0.19E-06 at (   1,   1,   1)
       Max VN number:   0.28E-02 at (   1,   1,  32)
       Mesh    8
       Max CFL number:  0.35E+00 at (  32,   1,  32)
       Max divergence:  0.91E-04 at (  32,   1,  32)
       Min divergence:  0.13E-04 at (   1,   1,   2)
       Max VN number:   0.28E-02 at (   1,   1,  32)
       Mesh    9
       Max CFL number:  0.31E+00 at (   1,   1,   1)
       Max divergence:  0.72E-04 at (   2,   1,   1)
       Min divergence:  0.13E-04 at (  32,   1,  32)
       Max VN number:   0.28E-02 at (  32,   1,  32)
       Mesh   10
[...]
       Max divergence:  0.16E-03 at (  24,   1,  11)
       Min divergence: -0.84E-04 at (  31,   1,  12)
       Max VN number:   0.20E-02 at (   1,   1,  32)
       Mesh    3
       Max CFL number:  0.22E+00 at (  15,   1,  26)
       Max divergence:  0.61E-04 at (  15,   1,  27)
       Min divergence: -0.36E-04 at (  10,   1,  28)
       Max VN number:   0.20E-02 at (   9,   1,  32)
       Mesh    4
       Max CFL number:  0.26E+00 at (   1,   1,  14)
       Max divergence:  0.27E-04 at (  32,   1,  29)
       Min divergence: -0.62E-04 at (   1,   1,  13)
       Max VN number:   0.20E-02 at (  19,   1,  32)
       Mesh    5
       Max CFL number:  0.80E-01 at (   7,   1,  32)
       Max divergence:  0.17E-04 at (  32,   1,  32)
       Min divergence:  0.20E-06 at (  21,   1,   1)
       Max VN number:   0.20E-02 at (   1,   1,  32)
       Mesh    6
       Max CFL number:  0.34E+00 at (   2,   1,  32)
       Max divergence:  0.66E-04 at (   2,   1,  32)
       Min divergence:  0.11E-04 at (   1,   1,   6)
       Max VN number:   0.20E-02 at (   1,   1,  32)
       Mesh    7
       Max CFL number:  0.67E-01 at (   1,   1,  32)
       Max divergence:  0.20E-04 at (  31,   1,  32)
       Min divergence:  0.21E-06 at (   1,   1,   1)
       Max VN number:   0.20E-02 at (   1,   1,  32)
       Mesh    8
       Max CFL number:  0.32E+00 at (  32,   1,  32)
       Max divergence:  0.12E-03 at (  32,   1,  32)
       Min divergence:  0.18E-04 at (   1,   1,   1)
       Max VN number:   0.20E-02 at (   2,   1,  32)
       Mesh    9
       Max CFL number:  0.30E+00 at (   3,   1,   1)
       Max divergence:  0.88E-04 at (   4,   1,   4)
       Min divergence: -0.68E-04 at (   1,   1,   4)
       Max VN number:   0.20E-02 at (   1,   1,  32)
       Mesh   10
       Max CFL number:  0.66E-01 at (  32,   1,   1)
       Max divergence:  0.19E-04 at (   4,   1,   1)
       Min divergence:  0.28E-06 at (  32,   1,  32)
       Max VN number:   0.20E-02 at (   1,   1,  32)
       Mesh   11
       Max CFL number:  0.45E+00 at (  32,   1,   1)
       Max divergence:  0.11E-03 at (  32,   1,   1)
       Min divergence:  0.15E-05 at (  27,   1,   5)
       Max VN number:   0.20E-02 at (  32,   1,  32)
       Mesh   12
       Max CFL number:  0.84E-01 at (  32,   1,   1)
       Max divergence:  0.17E-04 at (   1,   1,   1)
       Min divergence:  0.20E-06 at (  32,   1,  32)
       Max VN number:   0.20E-02 at (  32,   1,  32)
       Mesh   13
       Max CFL number:  0.29E+00 at (   1,   1,   1)
       Max divergence:  0.75E-04 at (   1,   1,   2)
       Min divergence: -0.84E-05 at (  10,   1,   2)
       Max VN number:   0.20E-02 at (  32,   1,  32)
       Mesh   14
       Max CFL number:  0.85E-01 at (   4,   1,   1)
       Max divergence:  0.11E-04 at (   1,   1,   1)
       Min divergence:  0.11E-06 at (  32,   1,  32)
       Max VN number:   0.20E-02 at (  32,   1,  32)
       Mesh   15
       Max CFL number:  0.82E-01 at (   1,   1,  15)
       Max divergence:  0.28E-05 at (   1,   1,  32)
       Min divergence:  0.36E-07 at (  32,   1,   2)
       Max VN number:   0.20E-02 at (  32,   1,  32)
       Mesh   16
       Max CFL number:  0.79E-01 at (   1,   1,   1)
       Max divergence:  0.28E-05 at (   1,   1,   1)
       Min divergence:  0.33E-07 at (  32,   1,  31)
       Max VN number:   0.20E-02 at (  32,   1,  32)
 
       Time Step     300   February 20, 2020  15:37:51
       Step Size:    0.750E-03 s, Total Time:       0.34 s
       Pressure Iterations:      1
       Maximum Velocity Error:  0.11E-15 on Mesh   6 at (   5   1  33)
       Maximum Pressure Error:  0.63E+05 on Mesh   4 at (   8   1   8)
       ScaRC: iterations   142, residual  0.68E-08, convergence rate   0.81E+00
       ---------------------------------------------------------------
       Mesh    1
       Max CFL number:  0.46E+00 at (  25,   1,  17)
       Max divergence:  0.55E-04 at (  10,   1,  17)
       Min divergence: -0.19E-03 at (  24,   1,  21)
       Max VN number:   0.16E-02 at (  22,   1,  32)
       Mesh    2
       Max CFL number:  0.47E+00 at (  25,   1,  16)
       Max divergence:  0.19E-03 at (  24,   1,  13)
       Min divergence: -0.58E-04 at (   9,   1,  17)
       Max VN number:   0.16E-02 at (   1,   1,  32)
       Mesh    3
       Max CFL number:  0.35E+00 at (   2,   1,  16)
       Max divergence:  0.12E-03 at (   3,   1,  18)
       Min divergence: -0.43E-04 at (  12,   1,  28)
       Max VN number:   0.16E-02 at (   9,   1,  32)
       Mesh    4
       Max CFL number:  0.32E+00 at (   3,   1,  18)
       Max divergence:  0.30E-04 at (  13,   1,   6)
       Min divergence: -0.12E-03 at (   3,   1,  14)
       Max VN number:   0.16E-02 at (  24,   1,  32)
       Mesh    5
       Max CFL number:  0.59E-01 at (   1,   1,  18)
       Max divergence:  0.15E-04 at (  32,   1,  32)
       Min divergence:  0.17E-06 at (  26,   1,   1)
       Max VN number:   0.16E-02 at (   7,   1,  32)
       Mesh    6
       Max CFL number:  0.22E+00 at (   5,   1,  32)
       Max divergence:  0.59E-04 at (   7,   1,  32)
       Min divergence: -0.31E-04 at (   3,   1,  32)
       Max VN number:   0.16E-02 at (   3,   1,  32)
       Mesh    7
       Max CFL number:  0.47E-01 at (   1,   1,  32)
       Max divergence:  0.18E-04 at (  31,   1,  32)
       Min divergence:  0.17E-06 at (   1,   1,   1)
       Max VN number:   0.16E-02 at (  32,   1,  32)
       Mesh    8
       Max CFL number:  0.20E+00 at (  32,   1,  32)
       Max divergence:  0.96E-04 at (  32,   1,  32)
       Min divergence:  0.16E-04 at (   1,   1,   1)
       Max VN number:   0.16E-02 at (   2,   1,  32)
       Mesh    9
       Max CFL number:  0.26E+00 at (   2,   1,   2)
       Max divergence:  0.10E-03 at (   6,   1,   3)
       Min divergence: -0.11E-03 at (   1,   1,   4)
       Max VN number:   0.16E-02 at (   1,   1,  32)
       Mesh   10
       Max CFL number:  0.45E-01 at (  32,   1,   1)
       Max divergence:  0.16E-04 at (  12,   1,   1)
       Min divergence:  0.21E-06 at (   1,   1,  32)
       Max VN number:   0.16E-02 at (   1,   1,  32)
       Mesh   11
       Max CFL number:  0.28E+00 at (  32,   1,   1)
       Max divergence:  0.91E-04 at (  32,   1,   1)
       Min divergence: -0.79E-05 at (  21,   1,   9)
       Max VN number:   0.16E-02 at (  32,   1,  32)
       Mesh   12
       Max CFL number:  0.59E-01 at (  32,   1,   1)
       Max divergence:  0.15E-04 at (   1,   1,   1)
       Min divergence:  0.17E-06 at (  32,   1,  32)
       Max VN number:   0.16E-02 at (  32,   1,  32)
       Mesh   13
       Max CFL number:  0.19E+00 at (   1,   1,   1)
       Max divergence:  0.68E-04 at (   1,   1,   2)
       Min divergence: -0.14E-04 at (   9,   1,   2)
       Max VN number:   0.16E-02 at (  32,   1,  32)
       Mesh   14
       Max CFL number:  0.59E-01 at (   4,   1,   1)
       Max divergence:  0.96E-05 at (   1,   1,   1)
       Min divergence:  0.86E-07 at (  32,   1,  32)
       Max VN number:   0.16E-02 at (  32,   1,  32)
       Mesh   15
       Max CFL number:  0.55E-01 at (   1,   1,  18)
       Max divergence:  0.23E-05 at (   1,   1,  32)
       Min divergence:  0.17E-07 at (   1,   1,   1)
       Max VN number:   0.16E-02 at (  32,   1,  32)
       Mesh   16
       Max CFL number:  0.54E-01 at (   1,   1,   1)
       Max divergence:  0.23E-05 at (   1,   1,   1)
       Min divergence:  0.39E-07 at (  32,   1,  31)
       Max VN number:   0.16E-02 at (  32,   1,  32)
 
       Time Step     400   February 20, 2020  15:38:07
       Step Size:    0.750E-03 s, Total Time:       0.41 s
       Pressure Iterations:      1
       Maximum Velocity Error:  0.11E-15 on Mesh   1 at (  22   1  33)
       Maximum Pressure Error:  0.14E+06 on Mesh   3 at (   8   1  25)
       ScaRC: iterations   142, residual  0.85E-08, convergence rate   0.81E+00
       ---------------------------------------------------------------
       Mesh    1
       Max CFL number:  0.44E+00 at (  30,   1,  14)
       Max divergence:  0.93E-04 at (  21,   1,  12)
       Min divergence: -0.20E-03 at (  26,   1,  14)
       Max VN number:   0.16E-02 at (  19,   1,  32)
       Mesh    2
       Max CFL number:  0.43E+00 at (  31,   1,  21)
       Max divergence:  0.19E-03 at (  26,   1,  21)
       Min divergence: -0.12E-03 at (  19,   1,  24)
       Max VN number:   0.16E-02 at (   1,   1,  32)
       Mesh    3
       Max CFL number:  0.33E+00 at (   6,   1,  11)
       Max divergence:  0.11E-03 at (   7,   1,  16)
       Min divergence: -0.75E-04 at (   9,   1,  24)
       Max VN number:   0.16E-02 at (   9,   1,  32)
       Mesh    4
       Max CFL number:  0.34E+00 at (   6,   1,  23)
       Max divergence:  0.94E-04 at (   9,   1,   9)
       Min divergence: -0.11E-03 at (   8,   1,  18)
       Max VN number:   0.16E-02 at (  31,   1,  32)
       Mesh    5
       Max CFL number:  0.59E-01 at (   1,   1,  16)
       Max divergence:  0.11E-04 at (   1,   1,  20)
       Min divergence:  0.10E-06 at (  32,   1,   1)
       Max VN number:   0.16E-02 at (  11,   1,  32)
       Mesh    6
       Max CFL number:  0.17E+00 at (   4,   1,  31)
       Max divergence:  0.49E-04 at (   9,   1,  32)
       Min divergence: -0.51E-04 at (   2,   1,  32)
       Max VN number:   0.16E-02 at (   1,   1,  32)
       Mesh    7
       Max CFL number:  0.31E-01 at (   1,   1,  32)
       Max divergence:  0.12E-04 at (  31,   1,  32)
       Min divergence:  0.10E-06 at (   6,   1,   1)
       Max VN number:   0.16E-02 at (  32,   1,  32)
       Mesh    8
       Max CFL number:  0.86E-01 at (  27,   1,  32)
       Max divergence:  0.38E-04 at (  30,   1,  32)
       Min divergence:  0.10E-04 at (   1,   1,   1)
       Max VN number:   0.16E-02 at (   3,   1,  32)
       Mesh    9
       Max CFL number:  0.21E+00 at (   7,   1,   7)
       Max divergence:  0.11E-03 at (   7,   1,   5)
       Min divergence: -0.91E-04 at (   3,   1,   4)
       Max VN number:   0.16E-02 at (   1,   1,  32)
       Mesh   10
       Max CFL number:  0.27E-01 at (  32,   1,   1)
       Max divergence:  0.97E-05 at (  28,   1,   1)
       Min divergence:  0.86E-07 at (   1,   1,  32)
       Max VN number:   0.16E-02 at (   1,   1,  32)
       Mesh   11
       Max CFL number:  0.19E+00 at (  32,   1,   1)
       Max divergence:  0.12E-03 at (  32,   1,   2)
       Min divergence: -0.14E-04 at (  19,   1,  10)
       Max VN number:   0.16E-02 at (  32,   1,  32)
       Mesh   12
       Max CFL number:  0.37E-01 at (  32,   1,   1)
       Max divergence:  0.96E-05 at (   1,   1,   1)
       Min divergence:  0.10E-06 at (  32,   1,  32)
       Max VN number:   0.16E-02 at (  32,   1,  32)
       Mesh   13
       Max CFL number:  0.23E+00 at (   1,   1,   1)
       Max divergence:  0.66E-04 at (   1,   1,   2)
       Min divergence: -0.20E-04 at (   7,   1,   3)
       Max VN number:   0.16E-02 at (  32,   1,  32)
       Mesh   14
       Max CFL number:  0.37E-01 at (   1,   1,   1)
       Max divergence:  0.62E-05 at (   1,   1,   1)
       Min divergence:  0.55E-07 at (  32,   1,  32)
       Max VN number:   0.16E-02 at (  32,   1,  32)
       Mesh   15
       Max CFL number:  0.33E-01 at (   1,   1,  24)
       Max divergence:  0.12E-05 at (   1,   1,  32)
       Min divergence: -0.15E-06 at (   1,   1,   3)
       Max VN number:   0.16E-02 at (  32,   1,  32)
       Mesh   16
       Max CFL number:  0.33E-01 at (   1,   1,   1)
       Max divergence:  0.12E-05 at (   1,   1,   1)
       Min divergence:  0.33E-07 at (  20,   1,  31)
       Max VN number:   0.16E-02 at (  32,   1,  32)
 
       Time Step     500   February 20, 2020  15:38:24
       Step Size:    0.825E-03 s, Total Time:       0.49 s
       Pressure Iterations:      1
       Maximum Velocity Error:  0.22E-15 on Mesh   2 at (  33   1  15)
       Maximum Pressure Error:  0.19E+06 on Mesh   3 at (   8   1  25)
       ScaRC: iterations   139, residual  0.96E-08, convergence rate   0.81E+00
       ---------------------------------------------------------------
       Mesh    1
       Max CFL number:  0.42E+00 at (  29,   1,   7)
       Max divergence:  0.13E-03 at (  21,   1,   8)
       Min divergence: -0.17E-03 at (  29,   1,  13)
       Max VN number:   0.18E-02 at (  18,   1,  32)
       Mesh    2
       Max CFL number:  0.42E+00 at (  30,   1,  24)
       Max divergence:  0.18E-03 at (  30,   1,  21)
       Min divergence: -0.11E-03 at (  10,   1,  27)
       Max VN number:   0.18E-02 at (   1,   1,  32)
       Mesh    3
       Max CFL number:  0.40E+00 at (  13,   1,  23)
       Max divergence:  0.14E-03 at (   7,   1,  13)
       Min divergence: -0.13E-03 at (   9,   1,  24)
       Max VN number:   0.18E-02 at (   9,   1,  32)
       Mesh    4
       Max CFL number:  0.44E+00 at (  15,   1,  10)
       Max divergence:  0.13E-03 at (  11,   1,   5)
       Min divergence: -0.13E-03 at (   7,   1,  20)
       Max VN number:   0.18E-02 at (  21,   1,  32)
       Mesh    5
       Max CFL number:  0.43E-01 at (   1,   1,  12)
       Max divergence:  0.90E-05 at (   1,   1,  13)
       Min divergence: -0.11E-07 at (  32,   1,   2)
       Max VN number:   0.18E-02 at (  13,   1,  32)
       Mesh    6
       Max CFL number:  0.27E+00 at (   1,   1,  32)
       Max divergence:  0.39E-04 at (   7,   1,  32)
       Min divergence: -0.13E-03 at (   1,   1,  32)
       Max VN number:   0.18E-02 at (   4,   1,  32)
       Mesh    7
       Max CFL number:  0.74E-02 at (   1,   1,  32)
       Max divergence:  0.25E-05 at (  31,   1,  32)
       Min divergence: -0.60E-07 at (  29,   1,   2)
       Max VN number:   0.18E-02 at (  32,   1,  32)
       Mesh    8
       Max CFL number:  0.10E+00 at (  32,   1,  32)
       Max divergence:  0.21E-04 at (  31,   1,  32)
       Min divergence: -0.31E-04 at (  32,   1,  31)
       Max VN number:   0.18E-02 at (   3,   1,  32)
       Mesh    9
       Max CFL number:  0.32E+00 at (   3,   1,   3)
       Max divergence:  0.53E-04 at (  11,   1,   3)
       Min divergence: -0.14E-03 at (   1,   1,   1)
       Max VN number:   0.18E-02 at (   1,   1,  32)
       Mesh   10
       Max CFL number:  0.10E-01 at (   1,   1,   1)
       Max divergence:  0.21E-05 at (  32,   1,   1)
       Min divergence: -0.46E-05 at (   1,   1,   1)
       Max VN number:   0.18E-02 at (   1,   1,  32)
       Mesh   11
       Max CFL number:  0.29E+00 at (  30,   1,   1)
       Max divergence:  0.69E-04 at (  30,   1,   3)
       Min divergence: -0.24E-04 at (  15,   1,  12)
       Max VN number:   0.18E-02 at (  32,   1,  32)
       Mesh   12
       Max CFL number:  0.77E-02 at (  26,   1,   1)
       Max divergence:  0.24E-05 at (  13,   1,   1)
       Min divergence: -0.13E-07 at (  32,   1,  31)
       Max VN number:   0.18E-02 at (  32,   1,  32)
       Mesh   13
       Max CFL number:  0.25E+00 at (   1,   1,   2)
       Max divergence:  0.90E-05 at (   1,   1,   1)
       Min divergence: -0.39E-04 at (   2,   1,   4)
       Max VN number:   0.18E-02 at (  32,   1,  32)
       Mesh   14
       Max CFL number:  0.73E-02 at (   1,   1,   1)
       Max divergence:  0.11E-05 at (   1,   1,   1)
       Min divergence: -0.19E-06 at (  27,   1,   1)
       Max VN number:   0.18E-02 at (  32,   1,  32)
       Mesh   15
       Max CFL number:  0.12E-01 at (   1,   1,   1)
       Max divergence:  0.60E-06 at (  32,   1,  32)
       Min divergence: -0.61E-06 at (   1,   1,  14)
       Max VN number:   0.18E-02 at (  32,   1,  32)
       Mesh   16
       Max CFL number:  0.68E-02 at (  25,   1,  32)
       Max divergence:  0.61E-06 at (  32,   1,   1)
       Min divergence: -0.15E-06 at (   1,   1,   1)
       Max VN number:   0.18E-02 at (  32,   1,  32)
 
       Time Step     511   February 20, 2020  15:38:25
       Step Size:    0.533E-03 s, Total Time:       0.50 s
       Pressure Iterations:      1
       Maximum Velocity Error:  0.22E-15 on Mesh   2 at (  33   1  16)
       Maximum Pressure Error:  0.21E+06 on Mesh   2 at (  25   1   8)
       ScaRC: iterations   142, residual  0.73E-08, convergence rate   0.81E+00
       ---------------------------------------------------------------
       Mesh    1
       Max CFL number:  0.28E+00 at (  21,   1,   8)
       Max divergence:  0.14E-03 at (  19,   1,   7)
       Min divergence: -0.18E-03 at (  29,   1,  12)
       Max VN number:   0.11E-02 at (  18,   1,  32)
       Mesh    2
       Max CFL number:  0.28E+00 at (  30,   1,  25)
       Max divergence:  0.17E-03 at (  29,   1,  21)
       Min divergence: -0.11E-03 at (  10,   1,  26)
       Max VN number:   0.11E-02 at (   1,   1,  32)
       Mesh    3
       Max CFL number:  0.29E+00 at (  14,   1,  23)
       Max divergence:  0.15E-03 at (  14,   1,  23)
       Min divergence: -0.12E-03 at (   9,   1,  23)
       Max VN number:   0.11E-02 at (   9,   1,  32)
       Mesh    4
       Max CFL number:  0.30E+00 at (  16,   1,   9)
       Max divergence:  0.12E-03 at (   9,   1,   9)
       Min divergence: -0.14E-03 at (  12,   1,  11)
       Max VN number:   0.11E-02 at (  21,   1,  32)
       Mesh    5
       Max CFL number:  0.27E-01 at (   1,   1,  12)
       Max divergence:  0.91E-05 at (   1,   1,  13)
       Min divergence: -0.53E-07 at (  32,   1,   2)
       Max VN number:   0.11E-02 at (  12,   1,  32)
       Mesh    6
       Max CFL number:  0.20E+00 at (   1,   1,  32)
       Max divergence:  0.46E-04 at (   7,   1,  32)
       Min divergence: -0.14E-03 at (   1,   1,  32)
       Max VN number:   0.11E-02 at (   4,   1,  32)
       Mesh    7
       Max CFL number:  0.37E-02 at (   1,   1,   1)
       Max divergence:  0.15E-05 at (   1,   1,  32)
       Min divergence: -0.11E-06 at (  32,   1,   3)
       Max VN number:   0.11E-02 at (  32,   1,  32)
       Mesh    8
       Max CFL number:  0.74E-01 at (  32,   1,  32)
       Max divergence:  0.25E-04 at (  31,   1,  32)
       Min divergence: -0.33E-04 at (  32,   1,  31)
       Max VN number:   0.11E-02 at (   3,   1,  32)
       Mesh    9
       Max CFL number:  0.21E+00 at (   3,   1,   3)
       Max divergence:  0.55E-04 at (   7,   1,   1)
       Min divergence: -0.15E-03 at (   1,   1,   1)
       Max VN number:   0.11E-02 at (   1,   1,  32)
       Mesh   10
       Max CFL number:  0.74E-02 at (   1,   1,   1)
       Max divergence:  0.11E-05 at (  32,   1,   1)
       Min divergence: -0.56E-05 at (   1,   1,   1)
       Max VN number:   0.11E-02 at (   1,   1,  32)
       Mesh   11
       Max CFL number:  0.21E+00 at (  30,   1,   2)
       Max divergence:  0.61E-04 at (  30,   1,   3)
       Min divergence: -0.35E-04 at (  32,   1,   3)
       Max VN number:   0.11E-02 at (  32,   1,  32)
       Mesh   12
       Max CFL number:  0.44E-02 at (  32,   1,  32)
       Max divergence:  0.15E-05 at (  15,   1,   1)
       Min divergence: -0.43E-07 at (  32,   1,  31)
       Max VN number:   0.11E-02 at (  32,   1,  32)
       Mesh   13
       Max CFL number:  0.15E+00 at (   2,   1,   1)
       Max divergence:  0.32E-05 at (   6,   1,   1)
       Min divergence: -0.42E-04 at (   1,   1,   4)
       Max VN number:   0.11E-02 at (  32,   1,  32)
       Mesh   14
       Max CFL number:  0.61E-02 at (  32,   1,  32)
       Max divergence:  0.53E-06 at (   1,   1,   1)
       Min divergence: -0.41E-06 at (  22,   1,   1)
       Max VN number:   0.11E-02 at (  32,   1,  32)
       Mesh   15
       Max CFL number:  0.10E-01 at (   1,   1,   1)
       Max divergence:  0.62E-06 at (  32,   1,  21)
       Min divergence: -0.69E-06 at (   1,   1,  16)
       Max VN number:   0.11E-02 at (  32,   1,  32)
       Mesh   16
       Max CFL number:  0.66E-02 at (  32,   1,  32)
       Max divergence:  0.60E-06 at (  32,   1,   1)
       Min divergence: -0.29E-06 at (   1,   1,   1)
       Max VN number:   0.11E-02 at (  32,   1,  32)
 


 Time Stepping Wall Clock Time (s):       76.861
 Total Elapsed Wall Clock Time (s):       79.370

STOP: FDS completed successfully (CHID: poisson2d_16mesh_uscarc)
