
 Fire Dynamics Simulator

 Current Date     : June 26, 2020  16:17:49
 Revision         : -AMG
 Revision Date    : Fri Jun 26 15:19:14 2020 +0200
 Compiler         : Intel ifort 19.0.5.281
 Compilation Date : Jun 26, 2020 15:25:32

 MPI Enabled;    Number of MPI Processes:       4
 OpenMP Enabled; Number of OpenMP Threads:      4

 MPI version: 3.1
 MPI library version: Intel(R) MPI Library 2018 Update 1 for Linux* OS


 Job TITLE        : Basic Poisson test of default ScaRC solver on 3D-pipe geometry with 4 meshes
 Job ID string    : poisson3d_fft


 Grid Dimensions, Mesh     1

   Cells in the X Direction            16
   Cells in the Y Direction            16
   Cells in the Z Direction            16
   Number of Grid Cells              4096


 Physical Dimensions, Mesh     1

   Length (m)                       0.400
   Width  (m)                       0.400
   Height (m)                       0.400
   Initial Time Step (s)            0.002

 Grid Dimensions, Mesh     2

   Cells in the X Direction            16
   Cells in the Y Direction            16
   Cells in the Z Direction            16
   Number of Grid Cells              4096


 Physical Dimensions, Mesh     2

   Length (m)                       0.400
   Width  (m)                       0.400
   Height (m)                       0.400
   Initial Time Step (s)            0.002

 Grid Dimensions, Mesh     3

   Cells in the X Direction            16
   Cells in the Y Direction            16
   Cells in the Z Direction            16
   Number of Grid Cells              4096


 Physical Dimensions, Mesh     3

   Length (m)                       0.400
   Width  (m)                       0.400
   Height (m)                       0.400
   Initial Time Step (s)            0.002

 Grid Dimensions, Mesh     4

   Cells in the X Direction            16
   Cells in the Y Direction            16
   Cells in the Z Direction            16
   Number of Grid Cells              4096


 Physical Dimensions, Mesh     4

   Length (m)                       0.400
   Width  (m)                       0.400
   Height (m)                       0.400
   Initial Time Step (s)            0.002

Total Number of Grid Cells         16384


 Miscellaneous Parameters

   Simulation Start Time (s)          0.0
   Simulation End Time (s)            0.5
   Ambient Temperature (C):         20.00


 Mass Fraction Transformation Matrix to Convert Species Mixtures (Columns) to Primitive Species (Rows)

                         AIR     
   NITROGEN              0.762470
   OXYGEN                0.230997
   CARBON DIOXIDE        0.000591
   WATER VAPOR           0.005941


 Primitive Species Information

   NITROGEN
   Gas Species
   Molecular Weight (g/mol)            28.01340
   Ambient Density (kg/m^3)            1.165
   Enthalpy of Formation (J/kg)        0.00E+00

   OXYGEN
   Gas Species
   Molecular Weight (g/mol)            31.99880
   Ambient Density (kg/m^3)            1.330
   Enthalpy of Formation (J/kg)        0.00E+00

   CARBON DIOXIDE
   Gas Species
   Molecular Weight (g/mol)            44.00950
   Ambient Density (kg/m^3)            1.830
   Enthalpy of Formation (J/kg)       -8.94E+06

   WATER VAPOR
   Gas Species
   Molecular Weight (g/mol)            18.01528
   Ambient Density (kg/m^3)            0.749
   Enthalpy of Formation (J/kg)       -1.34E+07


 Tracked (Lumped) Species Information

   AIR
   Molecular Weight (g/mol)            28.75199
   Ambient Density (kg/m^3)            1.195
   Initial Mass Fraction               1.000
   Enthalpy of Formation (J/kg)     -8.50E+04

   Sub Species                    Mass Fraction     Mole Fraction
   NITROGEN                       7.624701E-01      7.825730E-01
   OXYGEN                         2.309974E-01      2.075589E-01
   CARBON DIOXIDE                 5.914651E-04      3.864120E-04
   WATER VAPOR                    5.940984E-03      9.481679E-03
 
     Viscosity (kg/m/s) Ambient,  293 K:  1.80E-05
                                  500 K:  2.61E-05
                                 1000 K:  4.13E-05
                                 1500 K:  5.37E-05
   Therm. Cond. (W/m/K) Ambient,  293 K:  2.56E-02
                                  500 K:  3.81E-02
                                 1000 K:  6.69E-02
                                 1500 K:  9.25E-02
        Enthalpy (J/kg) Ambient,  293 K: -9.01E+04
                                  500 K:  1.22E+05
                                 1000 K:  6.72E+05
                                 1500 K:  1.27E+06
    Spec. Heat (J/kg/K) Ambient,  293 K:  1.02E+03
                                  500 K:  1.04E+03
                                 1000 K:  1.16E+03
                                 1500 K:  1.23E+03
   Diff. Coeff. (m^2/s) Ambient,  293 K:  1.99E-05
                                  500 K:  4.96E-05
                                 1000 K:  1.58E-04
                                 1500 K:  3.09E-04


 Material Information


 Surface Conditions

   0 INERT (DEFAULT)

   1 INFLOW
     Normal Velocity (m/s)        -2.000
     AIR Mass Fraction         1.000

   2 OPEN
     Passive Vent to Atmosphere

   3 MIRROR
     Symmetry Plane

   4 INTERPOLATED

   5 PERIODIC

   6 HVAC

   7 MASSLESS TRACER

   8 DROPLET

   9 EVACUATION_OUTFLOW
     Normal Velocity (m/s)         0.000

  10 MASSLESS TARGET

  11 PERIODIC WIND


 Device Coordinates

     1 Coords:      0.640000      0.200000      0.410000, Make: null, ID: u-vel, Quantity: U-VELOCITY
     2 Coords:      0.640000      0.200000      0.410000, Make: null, ID: w-vel, Quantity: W-VELOCITY
     3 Coords:      0.640000      0.200000      0.410000, Make: null, ID: pres, Quantity: PRESSURE
     4 Coords:      0.000250      0.200000      0.000250, Make: null, ID: error, Quantity: MAXIMUM VELOCITY ERROR
     5 Coords:      0.000250      0.200000      0.000250, Make: null, ID: iter, Quantity: PRESSURE ITERATIONS
     6 Coords:      0.000250      0.200000      0.000250, Make: null, ID: scarc-iter, Quantity: SCARC ITERATIONS
     7 Coords:      0.000250      0.200000      0.000250, Make: null, ID: scarc-rate, Quantity: SCARC CONVERGENCE RATE
     8 Coords:      0.000250      0.200000      0.000250, Make: null, ID: scarc-res, Quantity: SCARC RESIDUAL
     9 Coords:      0.000250      0.200000      0.200000, Make: null, ID: flow_in, Quantity: VOLUME FLOW +
    10 Coords:      1.199750      0.200000      0.600000, Make: null, ID: flow_out, Quantity: VOLUME FLOW -


 Slice File Information, Mesh     1

   Sampling Interval (s)             0.001

   1 Nodes:   0  16   8   8   0  16, Quantity: VELOCITY
   2 Nodes:   0  16   8   8   0  16, Quantity: U-VELOCITY
   3 Nodes:   0  16   8   8   0  16, Quantity: V-VELOCITY
   4 Nodes:   0  16   8   8   0  16, Quantity: W-VELOCITY
   5 Nodes:   0  16   8   8   0  16, Quantity: PRESSURE
   6 Nodes:   0  16   8   8   0  16, Quantity: H
 
 

 Run Time Diagnostics

       Time Step       1   June 26, 2020  16:17:49
       Step Size:    0.200E-02 s, Total Time:      0.002 s
       Pressure Iterations:      1
       Maximum Velocity Error:  0.17E-02 on Mesh   1 at (   7   8   8)
       Maximum Pressure Error:  0.49E-02 on Mesh   1 at (   1   1  16)
       ---------------------------------------------------------------
       Mesh    1
       Max CFL number:  0.38E-02 at (   1,  10,  10)
       Max divergence:  0.84E-06 at (   1,   9,  11)
       Min divergence: -0.84E-06 at (   1,   8,   6)
       Max VN number:   0.40E-03 at (  16,  16,  16)
       Mesh    2
       Max CFL number:  0.12E-07 at (   1,  16,  16)
       Max divergence:  0.11E-12 at (   1,   2,  15)
       Min divergence: -0.23E-11 at (  16,   8,  16)
       Max VN number:   0.40E-03 at (  16,  16,  16)
       Mesh    3
       Max CFL number:  0.13E-07 at (  16,  16,   1)
       Max divergence:  0.23E-11 at (  16,  15,   1)
       Min divergence:  0.27E-14 at (   1,   4,  16)
       Max VN number:   0.40E-03 at (  16,  16,  16)
       Mesh    4
       Max CFL number:  0.12E-07 at (   1,  16,  16)
       Max divergence:  0.94E-13 at (   1,  10,   7)
       Min divergence:  0.11E-15 at (  16,   5,   1)
       Max VN number:   0.40E-03 at (  16,  16,  16)
 
       Time Step       2   June 26, 2020  16:17:49
       Step Size:    0.200E-02 s, Total Time:      0.004 s
       Pressure Iterations:      1
       Maximum Velocity Error:  0.30E-02 on Mesh   1 at (  17  15   1)
       Maximum Pressure Error:  0.30E-02 on Mesh   1 at (   7  10  10)
       ---------------------------------------------------------------
       Mesh    1
       Max CFL number:  0.76E-02 at (   1,   7,  10)
       Max divergence:  0.17E-05 at (   1,   8,  11)
       Min divergence: -0.17E-05 at (   1,   8,   6)
       Max VN number:   0.40E-03 at (  13,   9,  16)
       Mesh    2
       Max CFL number:  0.14E-03 at (   1,   9,  16)
       Max divergence:  0.53E-07 at (   1,   8,  16)
       Min divergence: -0.34E-10 at (   1,   1,   3)
       Max VN number:   0.40E-03 at (  16,  16,  16)
       Mesh    3
       Max CFL number:  0.30E-05 at (   1,   8,   1)
       Max divergence:  0.68E-09 at (   1,   9,   2)
       Min divergence: -0.55E-08 at (   1,   9,   1)
       Max VN number:   0.40E-03 at (  16,  16,  16)
       Mesh    4
       Max CFL number:  0.17E-06 at (  16,   9,  16)
       Max divergence: -0.20E-11 at (   8,   9,  16)
       Min divergence: -0.60E-10 at (  16,   1,  13)
       Max VN number:   0.40E-03 at (  16,  16,  16)
 
       Time Step       3   June 26, 2020  16:17:49
       Step Size:    0.200E-02 s, Total Time:      0.006 s
       Pressure Iterations:      1
       Maximum Velocity Error:  0.44E-02 on Mesh   1 at (  17   1   1)
       Maximum Pressure Error:  0.40E-02 on Mesh   1 at (   7  10  10)
       ---------------------------------------------------------------
       Mesh    1
       Max CFL number:  0.11E-01 at (   1,  10,  10)
       Max divergence:  0.25E-05 at (   1,   9,  11)
       Min divergence: -0.25E-05 at (   1,   8,   6)
       Max VN number:   0.40E-03 at (  13,   9,  16)
       Mesh    2
       Max CFL number:  0.34E-03 at (   1,   9,  16)
       Max divergence:  0.14E-06 at (   1,  10,  16)
       Min divergence:  0.20E-10 at (   1,  16,   1)
       Max VN number:   0.40E-03 at (  16,  16,  16)
       Mesh    3
       Max CFL number:  0.38E-04 at (   1,   8,   1)
       Max divergence:  0.95E-08 at (   1,   8,   2)
       Min divergence: -0.87E-08 at (   3,   1,   1)
       Max VN number:   0.40E-03 at (  16,  16,  16)
       Mesh    4
       Max CFL number:  0.17E-06 at (  16,   3,  16)
       Max divergence:  0.37E-10 at (   1,   8,   2)
       Min divergence: -0.59E-10 at (  16,   1,  13)
       Max VN number:   0.40E-03 at (  16,  16,  16)
 
       Time Step       4   June 26, 2020  16:17:49
       Step Size:    0.200E-02 s, Total Time:      0.008 s
       Pressure Iterations:      1
       Maximum Velocity Error:  0.57E-02 on Mesh   1 at (  17   1   1)
       Maximum Pressure Error:  0.57E-02 on Mesh   1 at (   7  10  10)
       ---------------------------------------------------------------
       Mesh    1
       Max CFL number:  0.15E-01 at (   1,   7,  10)
       Max divergence:  0.34E-05 at (   1,   9,  11)
       Min divergence: -0.34E-05 at (   1,   8,   6)
       Max VN number:   0.40E-03 at (  12,   9,  16)
       Mesh    2
       Max CFL number:  0.58E-03 at (   1,   5,  16)
       Max divergence:  0.24E-06 at (   1,   1,  16)
       Min divergence:  0.13E-09 at (   1,   1,   1)
       Max VN number:   0.40E-03 at (  15,  16,  16)
       Mesh    3
       Max CFL number:  0.11E-03 at (   1,   8,   1)
       Max divergence:  0.35E-07 at (   1,   9,   1)
       Min divergence: -0.16E-07 at (   4,   1,   1)
       Max VN number:   0.40E-03 at (  16,  16,  16)
       Mesh    4
       Max CFL number:  0.17E-05 at (   1,   2,   1)
       Max divergence:  0.49E-09 at (   1,   5,   2)
       Min divergence: -0.59E-10 at (  16,  16,  13)
       Max VN number:   0.40E-03 at (  16,  16,  16)
 
       Time Step       5   June 26, 2020  16:17:49
       Step Size:    0.200E-02 s, Total Time:       0.01 s
       Pressure Iterations:      1
       Maximum Velocity Error:  0.67E-02 on Mesh   1 at (  17  16   1)
       Maximum Pressure Error:  0.81E-02 on Mesh   1 at (  10   7  10)
       ---------------------------------------------------------------
       Mesh    1
       Max CFL number:  0.19E-01 at (   1,  10,  10)
       Max divergence:  0.42E-05 at (   1,   9,  11)
       Min divergence: -0.42E-05 at (   1,   8,   6)
       Max VN number:   0.40E-03 at (  12,   9,  16)
       Mesh    2
       Max CFL number:  0.85E-03 at (   1,   3,  16)
       Max divergence:  0.35E-06 at (   1,  16,  16)
       Min divergence:  0.37E-09 at (   1,   1,   1)
       Max VN number:   0.40E-03 at (  15,  16,  16)
       Mesh    3
       Max CFL number:  0.21E-03 at (   1,   6,   1)
       Max divergence:  0.85E-07 at (   1,   9,   1)
       Min divergence: -0.23E-07 at (   5,   9,   1)
       Max VN number:   0.40E-03 at (  16,  16,  16)
       Mesh    4
       Max CFL number:  0.63E-05 at (   1,   2,   1)
       Max divergence:  0.18E-08 at (   1,  16,   2)
       Min divergence: -0.57E-10 at (  16,  14,  15)
       Max VN number:   0.40E-03 at (  16,  16,  16)
 
       Time Step       6   June 26, 2020  16:17:49
       Step Size:    0.200E-02 s, Total Time:       0.01 s
       Pressure Iterations:      1
       Maximum Velocity Error:  0.76E-02 on Mesh   1 at (  17   1   1)
       Maximum Pressure Error:  0.11E-01 on Mesh   1 at (   7   7  10)
       ---------------------------------------------------------------
       Mesh    1
       Max CFL number:  0.23E-01 at (   1,  10,  10)
       Max divergence:  0.51E-05 at (   1,   8,  11)
       Min divergence: -0.51E-05 at (   1,   8,   6)
       Max VN number:   0.40E-03 at (  12,   9,  16)
       Mesh    2
       Max CFL number:  0.12E-02 at (   1,  14,  16)
       Max divergence:  0.48E-06 at (   1,   1,  16)
       Min divergence:  0.81E-09 at (   1,  16,   1)
       Max VN number:   0.40E-03 at (  14,  16,  16)
       Mesh    3
       Max CFL number:  0.34E-03 at (   1,   3,   1)
       Max divergence:  0.15E-06 at (   1,  14,   1)
       Min divergence: -0.29E-07 at (   6,   8,   1)
       Max VN number:   0.40E-03 at (  16,  16,  16)
       Mesh    4
       Max CFL number:  0.16E-04 at (   1,   2,   1)
       Max divergence:  0.47E-08 at (   1,  16,   2)
       Min divergence: -0.55E-10 at (  16,   9,  15)
       Max VN number:   0.40E-03 at (  16,  16,  16)
 
       Time Step       7   June 26, 2020  16:17:49
       Step Size:    0.200E-02 s, Total Time:       0.01 s
       Pressure Iterations:      1
       Maximum Velocity Error:  0.82E-02 on Mesh   1 at (  17   8   1)
       Maximum Pressure Error:  0.14E-01 on Mesh   1 at (   7  10  10)
       ---------------------------------------------------------------
       Mesh    1
       Max CFL number:  0.27E-01 at (   1,  10,  10)
       Max divergence:  0.59E-05 at (   1,   8,  11)
       Min divergence: -0.59E-05 at (   1,   8,   6)
       Max VN number:   0.40E-03 at (  12,   9,  16)
       Mesh    2
       Max CFL number:  0.15E-02 at (   1,  14,  16)
       Max divergence:  0.62E-06 at (   1,   1,  16)
       Min divergence:  0.15E-08 at (   1,  16,   1)
       Max VN number:   0.40E-03 at (  14,  16,  16)
       Mesh    3
       Max CFL number:  0.49E-03 at (   1,   2,   1)
       Max divergence:  0.24E-06 at (   1,  16,   1)
       Min divergence: -0.33E-07 at (   7,   9,   1)
       Max VN number:   0.40E-03 at (  16,  16,  16)
       Mesh    4
       Max CFL number:  0.33E-04 at (   1,   2,   1)
       Max divergence:  0.96E-08 at (   1,  16,   2)
       Min divergence: -0.51E-10 at (  16,   9,  15)
       Max VN number:   0.40E-03 at (  16,  16,  16)
 
       Time Step       8   June 26, 2020  16:17:49
       Step Size:    0.200E-02 s, Total Time:       0.02 s
       Pressure Iterations:      1
       Maximum Velocity Error:  0.86E-02 on Mesh   1 at (  17   9   1)
       Maximum Pressure Error:  0.17E-01 on Mesh   1 at (   7   7  10)
       ---------------------------------------------------------------
       Mesh    1
       Max CFL number:  0.30E-01 at (   1,  10,  10)
       Max divergence:  0.68E-05 at (   1,   8,  11)
       Min divergence: -0.67E-05 at (   1,   9,   6)
       Max VN number:   0.40E-03 at (  12,   9,  16)
       Mesh    2
       Max CFL number:  0.19E-02 at (   1,   3,  16)
       Max divergence:  0.77E-06 at (   1,  16,  16)
       Min divergence:  0.25E-08 at (   1,   1,   1)
       Max VN number:   0.40E-03 at (  14,  16,  16)
       Mesh    3
       Max CFL number:  0.66E-03 at (   1,  15,   1)
       Max divergence:  0.34E-06 at (   1,  16,   1)
       Min divergence: -0.32E-07 at (   7,   8,   1)
       Max VN number:   0.40E-03 at (  16,  16,  16)
       Mesh    4
       Max CFL number:  0.59E-04 at (   1,   2,   1)
       Max divergence:  0.17E-07 at (   1,  16,   2)
       Min divergence: -0.43E-10 at (  16,   9,  15)
       Max VN number:   0.40E-03 at (  16,  16,  16)
 
       Time Step       9   June 26, 2020  16:17:49
       Step Size:    0.200E-02 s, Total Time:       0.02 s
       Pressure Iterations:      1
       Maximum Velocity Error:  0.88E-02 on Mesh   1 at (  17   8   1)
       Maximum Pressure Error:  0.20E-01 on Mesh   1 at (   7  10  10)
       ---------------------------------------------------------------
       Mesh    1
       Max CFL number:  0.34E-01 at (   1,  10,  10)
       Max divergence:  0.76E-05 at (   1,   8,  11)
       Min divergence: -0.76E-05 at (   1,   9,   6)
       Max VN number:   0.40E-03 at (  12,   9,  16)
       Mesh    2
       Max CFL number:  0.22E-02 at (   1,  14,  16)
       Max divergence:  0.92E-06 at (   1,  16,  16)
       Min divergence:  0.38E-08 at (   1,  16,   1)
       Max VN number:   0.40E-03 at (  13,  16,  16)
       Mesh    3
       Max CFL number:  0.85E-03 at (   1,  15,   1)
       Max divergence:  0.46E-06 at (   1,  16,   1)
       Min divergence: -0.25E-07 at (   8,   9,   1)
       Max VN number:   0.40E-03 at (  16,  16,  16)
       Mesh    4
       Max CFL number:  0.98E-04 at (   1,   2,   1)
       Max divergence:  0.28E-07 at (   1,  16,   2)
       Min divergence: -0.29E-10 at (  16,   9,  15)
       Max VN number:   0.40E-03 at (  16,  16,  16)
 
       Time Step      10   June 26, 2020  16:17:49
       Step Size:    0.200E-02 s, Total Time:       0.02 s
       Pressure Iterations:      1
       Maximum Velocity Error:  0.88E-02 on Mesh   1 at (  17   8   1)
       Maximum Pressure Error:  0.23E-01 on Mesh   1 at (   7  10  10)
       ---------------------------------------------------------------
       Mesh    1
       Max CFL number:  0.38E-01 at (   1,  10,  10)
       Max divergence:  0.84E-05 at (   1,   9,  11)
       Min divergence: -0.84E-05 at (   1,   9,   6)
       Max VN number:   0.40E-03 at (  11,   9,  16)
       Mesh    2
       Max CFL number:  0.27E-02 at (   1,  14,  16)
       Max divergence:  0.11E-05 at (   1,   1,  16)
       Min divergence:  0.54E-08 at (   1,   1,   1)
       Max VN number:   0.40E-03 at (  13,  16,  16)
       Mesh    3
       Max CFL number:  0.11E-02 at (   1,  15,   1)
       Max divergence:  0.59E-06 at (   1,   1,   1)
       Min divergence: -0.80E-08 at (   9,   8,   1)
       Max VN number:   0.40E-03 at (  16,  16,  16)
       Mesh    4
       Max CFL number:  0.15E-03 at (   1,  15,   1)
       Max divergence:  0.43E-07 at (   1,   1,   2)
       Min divergence: -0.82E-11 at (  16,   9,  15)
       Max VN number:   0.40E-03 at (  16,  16,  16)
 
       Time Step      20   June 26, 2020  16:17:49
       Step Size:    0.200E-02 s, Total Time:       0.04 s
       Pressure Iterations:      1
       Maximum Velocity Error:  0.85E-02 on Mesh   2 at (  11  16  17)
       Maximum Pressure Error:  0.56E-01 on Mesh   1 at (   7   7  10)
       ---------------------------------------------------------------
       Mesh    1
       Max CFL number:  0.74E-01 at (   1,   7,  10)
       Max divergence:  0.17E-04 at (   1,   9,  11)
       Min divergence: -0.17E-04 at (   1,   9,   6)
       Max VN number:   0.40E-03 at (  11,   9,  16)
       Mesh    2
       Max CFL number:  0.75E-02 at (   1,   3,  16)
       Max divergence:  0.30E-05 at (   1,  16,  16)
       Min divergence:  0.23E-07 at (   1,   1,   1)
       Max VN number:   0.40E-03 at (  10,  16,  16)
       Mesh    3
       Max CFL number:  0.41E-02 at (  16,  15,   1)
       Max divergence:  0.25E-05 at (   1,  15,   1)
       Min divergence:  0.17E-07 at (  16,  16,  16)
       Max VN number:   0.40E-03 at (  16,  16,  16)
       Mesh    4
       Max CFL number:  0.20E-02 at (   1,  15,   1)
       Max divergence:  0.45E-06 at (   1,   8,   3)
       Min divergence:  0.25E-09 at (  16,   2,  16)
       Max VN number:   0.40E-03 at (  16,  16,  16)
 
       Time Step      30   June 26, 2020  16:17:49
       Step Size:    0.200E-02 s, Total Time:       0.06 s
       Pressure Iterations:      1
       Maximum Velocity Error:  0.70E-02 on Mesh   1 at (  17   8   6)
       Maximum Pressure Error:  0.88E-01 on Mesh   1 at (   7  10  10)
       ---------------------------------------------------------------
       Mesh    1
       Max CFL number:  0.11E+00 at (   1,  10,  10)
       Max divergence:  0.24E-04 at (   1,   9,  11)
       Min divergence: -0.23E-04 at (   1,   8,   6)
       Max VN number:   0.40E-03 at (  11,   9,  16)
       Mesh    2
       Max CFL number:  0.12E-01 at (   1,  14,  16)
       Max divergence:  0.48E-05 at (   1,  15,  16)
       Min divergence:  0.37E-07 at (   1,  16,   1)
       Max VN number:   0.40E-03 at (   9,  16,  16)
       Mesh    3
       Max CFL number:  0.10E-01 at (  16,   2,   1)
       Max divergence:  0.48E-05 at (   1,  15,   1)
       Min divergence:  0.41E-07 at (  16,   1,  16)
       Max VN number:   0.40E-03 at (  16,  16,  16)
       Mesh    4
       Max CFL number:  0.59E-02 at (   1,  15,   1)
       Max divergence:  0.11E-05 at (   1,   7,   3)
       Min divergence:  0.65E-09 at (  16,  16,  16)
       Max VN number:   0.40E-03 at (  16,  16,  16)
 
       Time Step      40   June 26, 2020  16:17:50
       Step Size:    0.200E-02 s, Total Time:       0.08 s
       Pressure Iterations:      1
       Maximum Velocity Error:  0.12E-02 on Mesh   1 at (  17   8   1)
       Maximum Pressure Error:  0.10E+00 on Mesh   1 at (   7  10  10)
       ---------------------------------------------------------------
       Mesh    1
       Max CFL number:  0.13E+00 at (   1,  10,  10)
       Max divergence:  0.29E-04 at (   1,   8,  11)
       Min divergence: -0.29E-04 at (   1,   8,   6)
       Max VN number:   0.40E-03 at (  11,   9,  16)
       Mesh    2
       Max CFL number:  0.18E-01 at (   1,   3,  16)
       Max divergence:  0.80E-05 at (  16,  15,  16)
       Min divergence:  0.55E-07 at (   1,  16,   1)
       Max VN number:   0.40E-03 at (   9,  16,  16)
       Mesh    3
       Max CFL number:  0.18E-01 at (  16,  15,   1)
       Max divergence:  0.79E-05 at (   1,   2,   1)
       Min divergence:  0.78E-07 at (  16,   1,  16)
       Max VN number:   0.40E-03 at (  16,  16,  16)
       Mesh    4
       Max CFL number:  0.11E-01 at (   1,   2,   1)
       Max divergence:  0.21E-05 at (   1,   5,   3)
       Min divergence:  0.13E-08 at (  16,  16,  16)
       Max VN number:   0.40E-03 at (  16,  16,  16)
 
       Time Step      50   June 26, 2020  16:17:50
       Step Size:    0.200E-02 s, Total Time:       0.10 s
       Pressure Iterations:      1
       Maximum Velocity Error:  0.72E-02 on Mesh   1 at (  17   1   1)
       Maximum Pressure Error:  0.86E-01 on Mesh   1 at (  10  10  10)
       ---------------------------------------------------------------
       Mesh    1
       Max CFL number:  0.15E+00 at (   1,  10,  10)
       Max divergence:  0.33E-04 at (   1,   8,  11)
       Min divergence: -0.32E-04 at (   1,   8,   6)
       Max VN number:   0.40E-03 at (  11,   9,  16)
       Mesh    2
       Max CFL number:  0.25E-01 at (   1,   3,  16)
       Max divergence:  0.11E-04 at (  16,  14,  16)
       Min divergence:  0.76E-07 at (   1,  16,   1)
       Max VN number:   0.40E-03 at (   9,  16,  16)
       Mesh    3
       Max CFL number:  0.27E-01 at (  16,  15,   1)
       Max divergence:  0.11E-04 at (   1,  15,   1)
       Min divergence:  0.12E-06 at (  16,   1,  16)
       Max VN number:   0.40E-03 at (  16,  16,  16)
       Mesh    4
       Max CFL number:  0.17E-01 at (   1,  15,   1)
       Max divergence:  0.31E-05 at (   1,   2,   3)
       Min divergence:  0.19E-08 at (  16,   1,  16)
       Max VN number:   0.40E-03 at (  16,  16,  16)
 
       Time Step      60   June 26, 2020  16:17:50
       Step Size:    0.200E-02 s, Total Time:       0.12 s
       Pressure Iterations:      1
       Maximum Velocity Error:  0.10E-01 on Mesh   1 at (  17   8   1)
       Maximum Pressure Error:  0.45E-01 on Mesh   1 at (  10   7  10)
       ---------------------------------------------------------------
       Mesh    1
       Max CFL number:  0.16E+00 at (   1,  10,  10)
       Max divergence:  0.33E-04 at (   1,   8,  11)
       Min divergence: -0.33E-04 at (   1,   9,   6)
       Max VN number:   0.40E-03 at (  11,   9,  16)
       Mesh    2
       Max CFL number:  0.29E-01 at (   1,   3,  16)
       Max divergence:  0.14E-04 at (  16,  13,  16)
       Min divergence:  0.90E-07 at (   1,  16,   1)
       Max VN number:   0.40E-03 at (   8,  16,  16)
       Mesh    3
       Max CFL number:  0.33E-01 at (  16,  15,   1)
       Max divergence:  0.13E-04 at (   1,  15,   1)
       Min divergence:  0.14E-06 at (  16,   1,  16)
       Max VN number:   0.40E-03 at (  16,  16,  16)
       Mesh    4
       Max CFL number:  0.20E-01 at (   1,  15,   1)
       Max divergence:  0.38E-05 at (   1,  15,   3)
       Min divergence:  0.25E-08 at (  16,  16,  16)
       Max VN number:   0.40E-03 at (  16,  16,  16)
 
       Time Step      70   June 26, 2020  16:17:50
       Step Size:    0.200E-02 s, Total Time:       0.14 s
       Pressure Iterations:      1
       Maximum Velocity Error:  0.85E-02 on Mesh   1 at (  17   8   1)
       Maximum Pressure Error:  0.42E-02 on Mesh   1 at (   7   7  10)
       ---------------------------------------------------------------
       Mesh    1
       Max CFL number:  0.17E+00 at (   1,   7,   7)
       Max divergence:  0.32E-04 at (   2,   9,  11)
       Min divergence: -0.32E-04 at (   2,   8,   6)
       Max VN number:   0.40E-03 at (  11,   9,  16)
       Mesh    2
       Max CFL number:  0.32E-01 at (   1,  15,  16)
       Max divergence:  0.15E-04 at (  16,   6,  16)
       Min divergence:  0.98E-07 at (   1,  16,   1)
       Max VN number:   0.40E-03 at (   8,  16,  16)
       Mesh    3
       Max CFL number:  0.35E-01 at (  16,  15,   1)
       Max divergence:  0.15E-04 at (   1,  15,   1)
       Min divergence:  0.15E-06 at (  16,   1,  16)
       Max VN number:   0.40E-03 at (  16,  16,  16)
       Mesh    4
       Max CFL number:  0.22E-01 at (   1,  15,   1)
       Max divergence:  0.41E-05 at (   1,  15,   3)
       Min divergence:  0.29E-08 at (  16,  16,  16)
       Max VN number:   0.40E-03 at (  16,  16,  16)
 
       Time Step      80   June 26, 2020  16:17:50
       Step Size:    0.200E-02 s, Total Time:       0.16 s
       Pressure Iterations:      1
       Maximum Velocity Error:  0.52E-02 on Mesh   1 at (  17  16   1)
       Maximum Pressure Error:  0.24E-01 on Mesh   1 at (  10  10  10)
       ---------------------------------------------------------------
       Mesh    1
       Max CFL number:  0.18E+00 at (   1,   7,   7)
       Max divergence:  0.33E-04 at (   2,   9,  11)
       Min divergence: -0.32E-04 at (   2,   9,   6)
       Max VN number:   0.40E-03 at (  11,   9,  16)
       Mesh    2
       Max CFL number:  0.34E-01 at (   1,  15,  16)
       Max divergence:  0.16E-04 at (  16,   7,  16)
       Min divergence:  0.10E-06 at (   1,  16,   1)
       Max VN number:   0.40E-03 at (   8,  16,  16)
       Mesh    3
       Max CFL number:  0.36E-01 at (  16,  15,   1)
       Max divergence:  0.15E-04 at (   1,  15,   1)
       Min divergence:  0.15E-06 at (  16,   1,  16)
       Max VN number:   0.40E-03 at (  16,  16,  16)
       Mesh    4
       Max CFL number:  0.21E-01 at (   1,  15,   1)
       Max divergence:  0.41E-05 at (   1,   2,   3)
       Min divergence:  0.31E-08 at (  16,  16,  16)
       Max VN number:   0.40E-03 at (  16,  16,  16)
 
       Time Step      90   June 26, 2020  16:17:50
       Step Size:    0.200E-02 s, Total Time:       0.18 s
       Pressure Iterations:      1
       Maximum Velocity Error:  0.24E-02 on Mesh   1 at (  17   8   1)
       Maximum Pressure Error:  0.28E-01 on Mesh   1 at (  10   7  10)
       ---------------------------------------------------------------
       Mesh    1
       Max CFL number:  0.18E+00 at (   1,  10,   7)
       Max divergence:  0.34E-04 at (   3,   8,  11)
       Min divergence: -0.33E-04 at (   3,   9,   6)
       Max VN number:   0.40E-03 at (  11,   9,  16)
       Mesh    2
       Max CFL number:  0.35E-01 at (   1,   6,  16)
       Max divergence:  0.16E-04 at (  16,   8,  16)
       Min divergence:  0.10E-06 at (   1,   1,   1)
       Max VN number:   0.40E-03 at (   8,  16,  16)
       Mesh    3
       Max CFL number:  0.34E-01 at (  16,  15,   1)
       Max divergence:  0.14E-04 at (  16,  15,   1)
       Min divergence:  0.15E-06 at (  16,  16,  16)
       Max VN number:   0.40E-03 at (  16,  16,  16)
       Mesh    4
       Max CFL number:  0.20E-01 at (   1,  15,   1)
       Max divergence:  0.40E-05 at (   1,   2,   3)
       Min divergence:  0.32E-08 at (  16,   1,  16)
       Max VN number:   0.40E-03 at (  16,  16,  16)
 
       Time Step     100   June 26, 2020  16:17:50
       Step Size:    0.200E-02 s, Total Time:       0.20 s
       Pressure Iterations:      1
       Maximum Velocity Error:  0.70E-02 on Mesh   1 at (  17   8   1)
       Maximum Pressure Error:  0.51E-02 on Mesh   1 at (  10  10  10)
       ---------------------------------------------------------------
       Mesh    1
       Max CFL number:  0.19E+00 at (   1,  10,  10)
       Max divergence:  0.34E-04 at (   3,   8,  11)
       Min divergence: -0.34E-04 at (   3,   9,   6)
       Max VN number:   0.40E-03 at (  10,  16,  16)
       Mesh    2
       Max CFL number:  0.35E-01 at (   1,   9,  16)
       Max divergence:  0.16E-04 at (  16,   8,  16)
       Min divergence:  0.11E-06 at (   1,   1,   1)
       Max VN number:   0.40E-03 at (   8,  16,  16)
       Mesh    3
       Max CFL number:  0.34E-01 at (  16,   2,   1)
       Max divergence:  0.14E-04 at (  16,  15,   1)
       Min divergence:  0.14E-06 at (  16,  16,  16)
       Max VN number:   0.40E-03 at (  16,  16,  16)
       Mesh    4
       Max CFL number:  0.19E-01 at (   1,   2,   1)
       Max divergence:  0.39E-05 at (   1,   2,   3)
       Min divergence:  0.33E-08 at (  16,   1,  16)
       Max VN number:   0.40E-03 at (  16,  16,  16)
 
       Time Step     200   June 26, 2020  16:17:51
       Step Size:    0.200E-02 s, Total Time:       0.40 s
       Pressure Iterations:      1
       Maximum Velocity Error:  0.41E-02 on Mesh   1 at (  17   1   1)
       Maximum Pressure Error:  0.25E-01 on Mesh   1 at (  10   7  10)
       ---------------------------------------------------------------
       Mesh    1
       Max CFL number:  0.31E+00 at (   6,  10,  10)
       Max divergence:  0.11E-03 at (   6,   9,  15)
       Min divergence: -0.11E-03 at (   6,   9,   2)
       Max VN number:   0.40E-03 at (   1,  16,  16)
       Mesh    2
       Max CFL number:  0.21E-01 at (   1,  15,  16)
       Max divergence:  0.10E-04 at (  16,   9,  16)
       Min divergence:  0.65E-07 at (   1,   1,   1)
       Max VN number:   0.40E-03 at (   1,   9,  16)
       Mesh    3
       Max CFL number:  0.21E-01 at (  16,  15,   1)
       Max divergence:  0.12E-04 at (  16,   9,   1)
       Min divergence:  0.89E-07 at (  16,  16,  16)
       Max VN number:   0.40E-03 at (  16,   1,  16)
       Mesh    4
       Max CFL number:  0.12E-01 at (   1,   2,   2)
       Max divergence:  0.35E-05 at (   1,  15,   2)
       Min divergence: -0.11E-06 at (   3,   9,   1)
       Max VN number:   0.40E-03 at (  16,  16,  16)
 
       Time Step     250   June 26, 2020  16:17:53
       Step Size:    0.200E-02 s, Total Time:       0.50 s
       Pressure Iterations:      1
       Maximum Velocity Error:  0.76E-03 on Mesh   1 at (   7  10   7)
       Maximum Pressure Error:  0.89E-01 on Mesh   1 at (  10  10  10)
       ---------------------------------------------------------------
       Mesh    1
       Max CFL number:  0.26E+00 at (   5,  10,   7)
       Max divergence:  0.81E-04 at (   7,   9,  14)
       Min divergence: -0.83E-04 at (   7,   8,   3)
       Max VN number:   0.40E-03 at (   1,   9,  16)
       Mesh    2
       Max CFL number:  0.79E-02 at (   1,  15,  16)
       Max divergence:  0.86E-06 at (  16,   8,  16)
       Min divergence: -0.10E-05 at (   1,  16,  16)
       Max VN number:   0.40E-03 at (   1,   9,  16)
       Mesh    3
       Max CFL number:  0.72E-02 at (  16,   2,   1)
       Max divergence:  0.47E-05 at (  16,  15,   2)
       Min divergence: -0.31E-05 at (   1,  16,   1)
       Max VN number:   0.40E-03 at (  16,   1,  16)
       Mesh    4
       Max CFL number:  0.42E-02 at (   1,   2,   1)
       Max divergence:  0.14E-05 at (   1,  15,   2)
       Min divergence: -0.80E-06 at (   3,   8,   2)
       Max VN number:   0.40E-03 at (  16,  16,  16)
 


 Time Stepping Wall Clock Time (s):        3.845
 Total Elapsed Wall Clock Time (s):        4.035

STOP: FDS completed successfully (CHID: poisson3d_fft)
