
 Fire Dynamics Simulator

 Current Date     : June 23, 2020  17:41:07
 Revision         : -AMG
 Revision Date    : Mon Jun 22 10:12:53 2020 +0200
 Compiler         : Intel ifort 19.0.5.281
 Compilation Date : Jun 22, 2020 10:54:13

 MPI Enabled;    Number of MPI Processes:       1
 OpenMP Enabled; Number of OpenMP Threads:      4

 MPI version: 3.1
 MPI library version: Intel(R) MPI Library 2018 Update 1 for Linux* OS


 Job TITLE        : Default-FFT for 3D-cube with obstruction on 1 mesh
 Job ID string    : pressure_iteration3d_1mesh


 Grid Dimensions, Mesh     1

   Cells in the X Direction            32
   Cells in the Y Direction            32
   Cells in the Z Direction            32
   Number of Grid Cells             32768


 Physical Dimensions, Mesh     1

   Length (m)                       0.800
   Width  (m)                       0.800
   Height (m)                       0.800
   Initial Time Step (s)            0.022

Total Number of Grid Cells         32768


 Miscellaneous Parameters

   Simulation Start Time (s)          0.0
   Simulation End Time (s)            0.5
   Ambient Temperature (C):         20.00


 Mass Fraction Transformation Matrix to Convert Species Mixtures (Columns) to Primitive Species (Rows)

                         BACKGROU
   BACKGROUND            1.000000


 Primitive Species Information

   BACKGROUND
   Gas Species
   Molecular Weight (g/mol)            28.01340
   Ambient Density (kg/m^3)            1.165
   Enthalpy of Formation (J/kg)        0.00E+00


 Tracked (Lumped) Species Information

   BACKGROUND
   Molecular Weight (g/mol)            28.01340
   Ambient Density (kg/m^3)            1.165
   Initial Mass Fraction               1.000
   Enthalpy of Formation (J/kg)      0.00E+00

   Sub Species                    Mass Fraction     Mole Fraction
   BACKGROUND                     1.000000E+00      1.000000E+00
 
     Viscosity (kg/m/s) Ambient,  293 K:  1.74E-05
                                  500 K:  2.51E-05
                                 1000 K:  3.95E-05
                                 1500 K:  5.14E-05
   Therm. Cond. (W/m/K) Ambient,  293 K:  2.55E-02
                                  500 K:  3.67E-02
                                 1000 K:  5.78E-02
                                 1500 K:  7.52E-02
        Enthalpy (J/kg) Ambient,  293 K:  3.05E+05
                                  500 K:  5.19E+05
                                 1000 K:  1.04E+06
                                 1500 K:  1.56E+06
    Spec. Heat (J/kg/K) Ambient,  293 K:  1.04E+03
                                  500 K:  1.04E+03
                                 1000 K:  1.04E+03
                                 1500 K:  1.04E+03
   Diff. Coeff. (m^2/s) Ambient,  293 K:  1.99E-05
                                  500 K:  4.93E-05
                                 1000 K:  1.57E-04
                                 1500 K:  3.07E-04


 Material Information


 Surface Conditions

   0 INERT (DEFAULT)

   1 INFLOW1
     Normal Velocity (m/s)        -2.000
     BACKGROUND Mass Fraction         1.000

   2 INFLOW2
     Normal Velocity (m/s)        -2.000
     BACKGROUND Mass Fraction         1.000

   3 INFLOW3
     Normal Velocity (m/s)        -2.000
     BACKGROUND Mass Fraction         1.000

   4 OPEN
     Passive Vent to Atmosphere

   5 MIRROR
     Symmetry Plane

   6 INTERPOLATED

   7 PERIODIC

   8 HVAC

   9 MASSLESS TRACER

  10 DROPLET

  11 EVACUATION_OUTFLOW
     Normal Velocity (m/s)         0.000

  12 MASSLESS TARGET

  13 PERIODIC WIND


 Device Coordinates

     1 Coords:      0.640000      0.000250      0.410000, Make: null, ID: u-vel, Quantity: U-VELOCITY
     2 Coords:      0.640000      0.000250      0.410000, Make: null, ID: v-vel, Quantity: V-VELOCITY
     3 Coords:      0.640000      0.000250      0.410000, Make: null, ID: w-vel, Quantity: W-VELOCITY
     4 Coords:      0.640000      0.000250      0.410000, Make: null, ID: pres, Quantity: PRESSURE
     5 Coords:      0.000250      0.000250      0.000250, Make: null, ID: error, Quantity: MAXIMUM VELOCITY ERROR
     6 Coords:      0.000250      0.000250      0.000250, Make: null, ID: iter, Quantity: PRESSURE ITERATIONS
     7 Coords:      0.000250      0.000250      0.000250, Make: null, ID: scarc-iter, Quantity: SCARC ITERATIONS
     8 Coords:      0.000250      0.000250      0.000250, Make: null, ID: scarc-rate, Quantity: SCARC CONVERGENCE RATE
     9 Coords:      0.000250      0.000250      0.000250, Make: null, ID: scarc-res, Quantity: SCARC RESIDUAL


 Slice File Information, Mesh     1

   Sampling Interval (s)             0.001

   1 Nodes:  16  16   0  32   0  32, Quantity: VELOCITY
   2 Nodes:  16  16   0  32   0  32, Quantity: U-VELOCITY
   3 Nodes:  16  16   0  32   0  32, Quantity: V-VELOCITY
   4 Nodes:  16  16   0  32   0  32, Quantity: W-VELOCITY
   5 Nodes:  16  16   0  32   0  32, Quantity: H
   6 Nodes:   0  32  16  16   0  32, Quantity: VELOCITY
   7 Nodes:   0  32  16  16   0  32, Quantity: U-VELOCITY
   8 Nodes:   0  32  16  16   0  32, Quantity: V-VELOCITY
   9 Nodes:   0  32  16  16   0  32, Quantity: W-VELOCITY
  10 Nodes:   0  32  16  16   0  32, Quantity: H
  11 Nodes:   0  32   0  32  16  16, Quantity: VELOCITY
  12 Nodes:   0  32   0  32  16  16, Quantity: U-VELOCITY
  13 Nodes:   0  32   0  32  16  16, Quantity: V-VELOCITY
  14 Nodes:   0  32   0  32  16  16, Quantity: W-VELOCITY
  15 Nodes:   0  32   0  32  16  16, Quantity: H


 Radiation Model Information

   Number of control angles  104
   Time step increment         3
   Angle increment             5
   Theta band N_phi   Solid angle
     1:        4     0.120
     2:       12     0.114
     3:       16     0.127
     4:       20     0.120
     5:       20     0.120
     6:       16     0.127
     7:       12     0.114
     8:        4     0.120
   Using constant absorption coefficient of -10.000 1/m
 
 

 Run Time Diagnostics

       Time Step       1   June 23, 2020  17:41:07
       Step Size:    0.264E-02 s, Total Time:      0.003 s
       Pressure Iterations:      4
       Maximum Velocity Error:  0.96E-02 on Mesh   1 at (  16  13  20)
       Maximum Pressure Error:  0.18E+00 on Mesh   1 at (  14   1  21)
       ---------------------------------------------------------------
       Max CFL number:  0.45E+00 at (  20,   1,  20)
       Max divergence:  0.10E-03 at (  16,   1,  21)
       Min divergence: -0.89E-04 at (  17,   1,  12)
       Max VN number:   0.53E-03 at (  32,  32,  32)
 
       Time Step       2   June 23, 2020  17:41:07
       Step Size:    0.264E-02 s, Total Time:      0.005 s
       Pressure Iterations:      4
       Maximum Velocity Error:  0.90E-02 on Mesh   1 at (  16  13  20)
       Maximum Pressure Error:  0.36E+00 on Mesh   1 at (  20  20  20)
       ---------------------------------------------------------------
       Max CFL number:  0.42E+00 at (  20,   1,  20)
       Max divergence:  0.96E-04 at (  16,   1,  21)
       Min divergence: -0.85E-04 at (  17,   1,  12)
       Max VN number:   0.53E-03 at (  32,  32,  32)
 
       Time Step       3   June 23, 2020  17:41:07
       Step Size:    0.264E-02 s, Total Time:      0.008 s
       Pressure Iterations:      1
       Maximum Velocity Error:  0.87E-02 on Mesh   1 at (  16  13  20)
       Maximum Pressure Error:  0.46E-02 on Mesh   1 at (  17  12  18)
       ---------------------------------------------------------------
       Max CFL number:  0.41E+00 at (  20,   1,  20)
       Max divergence:  0.93E-04 at (  16,   1,  21)
       Min divergence: -0.83E-04 at (  17,   1,  12)
       Max VN number:   0.53E-03 at (  32,  32,  32)
 
       Time Step       4   June 23, 2020  17:41:07
       Step Size:    0.264E-02 s, Total Time:       0.01 s
       Pressure Iterations:      1
       Maximum Velocity Error:  0.32E-02 on Mesh   1 at (  16  13  20)
       Maximum Pressure Error:  0.96E-03 on Mesh   1 at (  13  13  17)
       ---------------------------------------------------------------
       Max CFL number:  0.39E+00 at (  20,   1,  20)
       Max divergence:  0.88E-04 at (  16,   1,  21)
       Min divergence: -0.79E-04 at (  17,   1,  12)
       Max VN number:   0.53E-03 at (  32,  32,  32)
 
       Time Step       5   June 23, 2020  17:41:07
       Step Size:    0.290E-02 s, Total Time:       0.01 s
       Pressure Iterations:      1
       Maximum Velocity Error:  0.11E-02 on Mesh   1 at (  17  13  20)
       Maximum Pressure Error:  0.14E-02 on Mesh   1 at (  13  13  18)
       ---------------------------------------------------------------
       Max CFL number:  0.41E+00 at (  20,   1,  20)
       Max divergence:  0.89E-04 at (  16,  16,   2)
       Min divergence: -0.76E-04 at (  16,   1,  12)
       Max VN number:   0.59E-03 at (  32,  32,  32)
 
       Time Step       6   June 23, 2020  17:41:07
       Step Size:    0.290E-02 s, Total Time:       0.02 s
       Pressure Iterations:      1
       Maximum Velocity Error:  0.20E-02 on Mesh   1 at (  16  13  20)
       Maximum Pressure Error:  0.22E-02 on Mesh   1 at (  17  12  18)
       ---------------------------------------------------------------
       Max CFL number:  0.39E+00 at (  20,   1,  20)
       Max divergence:  0.93E-04 at (  16,  16,   2)
       Min divergence: -0.72E-04 at (  16,   1,  12)
       Max VN number:   0.59E-03 at (  32,  32,  32)
 
       Time Step       7   June 23, 2020  17:41:07
       Step Size:    0.319E-02 s, Total Time:       0.02 s
       Pressure Iterations:      1
       Maximum Velocity Error:  0.10E-02 on Mesh   1 at (  16  13  20)
       Maximum Pressure Error:  0.22E-02 on Mesh   1 at (  17  12  18)
       ---------------------------------------------------------------
       Max CFL number:  0.41E+00 at (  20,   1,  20)
       Max divergence:  0.95E-04 at (  16,  16,   2)
       Min divergence: -0.68E-04 at (  16,   1,  12)
       Max VN number:   0.65E-03 at (  32,  32,  32)
 
       Time Step       8   June 23, 2020  17:41:07
       Step Size:    0.319E-02 s, Total Time:       0.02 s
       Pressure Iterations:      1
       Maximum Velocity Error:  0.12E-03 on Mesh   1 at (  13  20  17)
       Maximum Pressure Error:  0.15E-02 on Mesh   1 at (  17  12  18)
       ---------------------------------------------------------------
       Max CFL number:  0.39E+00 at (  20,   1,  20)
       Max divergence:  0.97E-04 at (  16,  16,   2)
       Min divergence: -0.64E-04 at (  16,   2,  12)
       Max VN number:   0.65E-03 at (  32,  32,  32)
 
       Time Step       9   June 23, 2020  17:41:07
       Step Size:    0.351E-02 s, Total Time:       0.03 s
       Pressure Iterations:      1
       Maximum Velocity Error:  0.45E-03 on Mesh   1 at (  16  13  20)
       Maximum Pressure Error:  0.88E-03 on Mesh   1 at (  17  12  18)
       ---------------------------------------------------------------
       Max CFL number:  0.41E+00 at (  20,   1,  13)
       Max divergence:  0.98E-04 at (  16,  16,   2)
       Min divergence: -0.64E-04 at (  16,   2,  12)
       Max VN number:   0.71E-03 at (  32,  32,  32)
 
       Time Step      10   June 23, 2020  17:41:07
       Step Size:    0.351E-02 s, Total Time:       0.03 s
       Pressure Iterations:      1
       Maximum Velocity Error:  0.27E-03 on Mesh   1 at (  20  14  15)
       Maximum Pressure Error:  0.65E-03 on Mesh   1 at (  13  13  20)
       ---------------------------------------------------------------
       Max CFL number:  0.40E+00 at (  13,   1,  13)
       Max divergence:  0.99E-04 at (  16,  16,   2)
       Min divergence: -0.64E-04 at (  16,   2,  12)
       Max VN number:   0.71E-03 at (  32,  32,  32)
 
       Time Step      20   June 23, 2020  17:41:08
       Step Size:    0.468E-02 s, Total Time:       0.07 s
       Pressure Iterations:      1
       Maximum Velocity Error:  0.68E-03 on Mesh   1 at (  13  16  13)
       Maximum Pressure Error:  0.82E-03 on Mesh   1 at (  13  13  20)
       ---------------------------------------------------------------
       Max CFL number:  0.43E+00 at (  17,   3,  20)
       Max divergence:  0.84E-04 at (  16,  16,   2)
       Min divergence: -0.53E-04 at (  16,   3,  12)
       Max VN number:   0.94E-03 at (  32,  32,  32)
 
       Time Step      30   June 23, 2020  17:41:09
       Step Size:    0.468E-02 s, Total Time:       0.12 s
       Pressure Iterations:      1
       Maximum Velocity Error:  0.34E-03 on Mesh   1 at (  20  13  16)
       Maximum Pressure Error:  0.57E-03 on Mesh   1 at (  13  13  20)
       ---------------------------------------------------------------
       Max CFL number:  0.41E+00 at (  20,   4,  18)
       Max divergence:  0.56E-04 at (  16,   5,  21)
       Min divergence: -0.47E-04 at (  16,   4,  12)
       Max VN number:   0.94E-03 at (  32,  32,  32)
 
       Time Step      40   June 23, 2020  17:41:09
       Step Size:    0.468E-02 s, Total Time:       0.17 s
       Pressure Iterations:      1
       Maximum Velocity Error:  0.51E-03 on Mesh   1 at (  20  16  13)
       Maximum Pressure Error:  0.20E-02 on Mesh   1 at (  16  17  12)
       ---------------------------------------------------------------
       Max CFL number:  0.42E+00 at (   1,  13,  17)
       Max divergence:  0.56E-04 at (   3,  16,  21)
       Min divergence: -0.50E-04 at (   3,  16,  12)
       Max VN number:   0.94E-03 at (  32,  32,  32)
 
       Time Step      50   June 23, 2020  17:41:10
       Step Size:    0.468E-02 s, Total Time:       0.21 s
       Pressure Iterations:      1
       Maximum Velocity Error:  0.29E-03 on Mesh   1 at (  20  13  16)
       Maximum Pressure Error:  0.94E-03 on Mesh   1 at (  13  20  20)
       ---------------------------------------------------------------
       Max CFL number:  0.47E+00 at (   1,  20,  20)
       Max divergence:  0.70E-04 at (  19,  19,   2)
       Min divergence: -0.52E-04 at (   4,  16,  12)
       Max VN number:   0.94E-03 at (  32,  32,  32)
 
       Time Step      60   June 23, 2020  17:41:11
       Step Size:    0.407E-02 s, Total Time:       0.26 s
       Pressure Iterations:      1
       Maximum Velocity Error:  0.31E-02 on Mesh   1 at (  18  13  18)
       Maximum Pressure Error:  0.13E-02 on Mesh   1 at (  13  20  20)
       ---------------------------------------------------------------
       Max CFL number:  0.45E+00 at (   6,  20,  20)
       Max divergence:  0.10E-03 at (  17,  17,   2)
       Min divergence: -0.50E-04 at (   6,  17,  12)
       Max VN number:   0.82E-03 at (  32,  32,  32)
 
       Time Step      70   June 23, 2020  17:41:11
       Step Size:    0.407E-02 s, Total Time:       0.30 s
       Pressure Iterations:      1
       Maximum Velocity Error:  0.90E-03 on Mesh   1 at (  18  13  18)
       Maximum Pressure Error:  0.27E-02 on Mesh   1 at (  13  13  18)
       ---------------------------------------------------------------
       Max CFL number:  0.47E+00 at (   7,  20,  20)
       Max divergence:  0.14E-03 at (  17,  17,   2)
       Min divergence: -0.50E-04 at (   6,  17,  11)
       Max VN number:   0.82E-03 at (  32,  32,  32)
 
       Time Step      80   June 23, 2020  17:41:12
       Step Size:    0.356E-02 s, Total Time:       0.34 s
       Pressure Iterations:      1
       Maximum Velocity Error:  0.21E-02 on Mesh   1 at (  18  13  18)
       Maximum Pressure Error:  0.32E-02 on Mesh   1 at (  18  13  18)
       ---------------------------------------------------------------
       Max CFL number:  0.49E+00 at (  19,   5,  19)
       Max divergence:  0.16E-03 at (  16,  16,   2)
       Min divergence: -0.54E-04 at (   7,  17,  11)
       Max VN number:   0.72E-03 at (  32,  32,  32)
 
       Time Step      90   June 23, 2020  17:41:13
       Step Size:    0.356E-02 s, Total Time:       0.37 s
       Pressure Iterations:      1
       Maximum Velocity Error:  0.22E-02 on Mesh   1 at (  13  18  18)
       Maximum Pressure Error:  0.41E-02 on Mesh   1 at (  13  13  18)
       ---------------------------------------------------------------
       Max CFL number:  0.44E+00 at (   7,  20,  20)
       Max divergence:  0.17E-03 at (  17,  17,   2)
       Min divergence: -0.59E-04 at (   8,  17,  11)
       Max VN number:   0.72E-03 at (  32,  32,  32)
 
       Time Step     100   June 23, 2020  17:41:13
       Step Size:    0.319E-02 s, Total Time:       0.41 s
       Pressure Iterations:      1
       Maximum Velocity Error:  0.27E-02 on Mesh   1 at (  19  13  19)
       Maximum Pressure Error:  0.40E-02 on Mesh   1 at (  19  13  19)
       ---------------------------------------------------------------
       Max CFL number:  0.46E+00 at (   8,  20,  20)
       Max divergence:  0.18E-03 at (  17,  17,   2)
       Min divergence: -0.60E-04 at (   9,  16,  11)
       Max VN number:   0.65E-03 at (  32,  32,  32)
 
       Time Step     130   June 23, 2020  17:41:16
       Step Size:    0.194E-02 s, Total Time:       0.50 s
       Pressure Iterations:      1
       Maximum Velocity Error:  0.18E-02 on Mesh   1 at (  20  13  19)
       Maximum Pressure Error:  0.36E-02 on Mesh   1 at (  19  12  20)
       ---------------------------------------------------------------
       Max CFL number:  0.28E+00 at (  19,   2,  19)
       Max divergence:  0.15E-03 at (  17,  17,   2)
       Min divergence: -0.81E-04 at (   9,  18,   9)
       Max VN number:   0.39E-03 at (  32,  32,  32)
 


 Time Stepping Wall Clock Time (s):        9.388
 Total Elapsed Wall Clock Time (s):        9.968

STOP: FDS completed successfully (CHID: pressure_iteration3d_1mesh)
