
 Fire Dynamics Simulator

 Current Date     : June 23, 2020  17:41:08
 Revision         : -AMG
 Revision Date    : Mon Jun 22 10:12:53 2020 +0200
 Compiler         : Intel ifort 19.0.5.281
 Compilation Date : Jun 22, 2020 10:54:13

 MPI Enabled;    Number of MPI Processes:       1
 OpenMP Enabled; Number of OpenMP Threads:      4

 MPI version: 3.1
 MPI library version: Intel(R) MPI Library 2018 Update 1 for Linux* OS


 Job TITLE        : Default-FFT for 2D-square with obstruction on 1 mesh
 Job ID string    : pressure_iteration2d_1mesh


 Grid Dimensions, Mesh     1

   Cells in the X Direction            32
   Cells in the Y Direction             1
   Cells in the Z Direction            32
   Number of Grid Cells              1024


 Physical Dimensions, Mesh     1

   Length (m)                       0.800
   Width  (m)                       0.020
   Height (m)                       0.800
   Initial Time Step (s)            0.002

Total Number of Grid Cells          1024


 Miscellaneous Parameters

   Simulation Start Time (s)          0.0
   Simulation End Time (s)            0.5
   Ambient Temperature (C):         20.00


 Mass Fraction Transformation Matrix to Convert Species Mixtures (Columns) to Primitive Species (Rows)

                         AIR     
   NITROGEN              0.762470
   OXYGEN                0.230997
   CARBON DIOXIDE        0.000591
   WATER VAPOR           0.005941


 Primitive Species Information

   NITROGEN
   Gas Species
   Molecular Weight (g/mol)            28.01340
   Ambient Density (kg/m^3)            1.165
   Enthalpy of Formation (J/kg)        0.00E+00

   OXYGEN
   Gas Species
   Molecular Weight (g/mol)            31.99880
   Ambient Density (kg/m^3)            1.330
   Enthalpy of Formation (J/kg)        0.00E+00

   CARBON DIOXIDE
   Gas Species
   Molecular Weight (g/mol)            44.00950
   Ambient Density (kg/m^3)            1.830
   Enthalpy of Formation (J/kg)       -8.94E+06

   WATER VAPOR
   Gas Species
   Molecular Weight (g/mol)            18.01528
   Ambient Density (kg/m^3)            0.749
   Enthalpy of Formation (J/kg)       -1.34E+07


 Tracked (Lumped) Species Information

   AIR
   Molecular Weight (g/mol)            28.75199
   Ambient Density (kg/m^3)            1.195
   Initial Mass Fraction               1.000
   Enthalpy of Formation (J/kg)     -8.50E+04

   Sub Species                    Mass Fraction     Mole Fraction
   NITROGEN                       7.624701E-01      7.825730E-01
   OXYGEN                         2.309974E-01      2.075589E-01
   CARBON DIOXIDE                 5.914651E-04      3.864120E-04
   WATER VAPOR                    5.940984E-03      9.481679E-03
 
     Viscosity (kg/m/s) Ambient,  293 K:  1.80E-05
                                  500 K:  2.61E-05
                                 1000 K:  4.13E-05
                                 1500 K:  5.37E-05
   Therm. Cond. (W/m/K) Ambient,  293 K:  2.56E-02
                                  500 K:  3.81E-02
                                 1000 K:  6.69E-02
                                 1500 K:  9.25E-02
        Enthalpy (J/kg) Ambient,  293 K: -9.01E+04
                                  500 K:  1.22E+05
                                 1000 K:  6.72E+05
                                 1500 K:  1.27E+06
    Spec. Heat (J/kg/K) Ambient,  293 K:  1.02E+03
                                  500 K:  1.04E+03
                                 1000 K:  1.16E+03
                                 1500 K:  1.23E+03
   Diff. Coeff. (m^2/s) Ambient,  293 K:  1.99E-05
                                  500 K:  4.96E-05
                                 1000 K:  1.58E-04
                                 1500 K:  3.09E-04


 Material Information


 Surface Conditions

   0 INERT (DEFAULT)

   1 INFLOW1
     Normal Velocity (m/s)        -2.000
     AIR Mass Fraction         1.000

   2 INFLOW2
     Normal Velocity (m/s)        -2.000
     AIR Mass Fraction         1.000

   3 OPEN
     Passive Vent to Atmosphere

   4 MIRROR
     Symmetry Plane

   5 INTERPOLATED

   6 PERIODIC

   7 HVAC

   8 MASSLESS TRACER

   9 DROPLET

  10 EVACUATION_OUTFLOW
     Normal Velocity (m/s)         0.000

  11 MASSLESS TARGET

  12 PERIODIC WIND


 Device Coordinates

     1 Coords:      0.640000      0.000000      0.410000, Make: null, ID: u-vel, Quantity: U-VELOCITY
     2 Coords:      0.640000      0.000000      0.410000, Make: null, ID: w-vel, Quantity: W-VELOCITY
     3 Coords:      0.640000      0.000000      0.410000, Make: null, ID: pres, Quantity: PRESSURE
     4 Coords:      0.000250      0.000000      0.000250, Make: null, ID: error, Quantity: MAXIMUM VELOCITY ERROR
     5 Coords:      0.000250      0.000000      0.000250, Make: null, ID: iter, Quantity: PRESSURE ITERATIONS


 Slice File Information, Mesh     1

   Sampling Interval (s)             0.001

   1 Nodes:   0  32   1   1   0  32, Quantity: VELOCITY
   2 Nodes:   0  32   1   1   0  32, Quantity: U-VELOCITY
   3 Nodes:   0  32   1   1   0  32, Quantity: W-VELOCITY
   4 Nodes:   0  32   1   1   0  32, Quantity: PRESSURE
   5 Nodes:   0  32   1   1   0  32, Quantity: H


 Radiation Model Information

   Number of control angles   60
   Time step increment         2
   Angle increment             4
   Phi band   N_theta Solid angle
     1:       60     0.209
   Using gray gas absorption.
   Mean beam length  0.100 m
 
 

 Run Time Diagnostics

       Time Step       1   June 23, 2020  17:41:08
       Step Size:    0.200E-02 s, Total Time:      0.002 s
       Pressure Iterations:      7
       Maximum Velocity Error:  0.11E-01 on Mesh   1 at (  13   1  20)
       Maximum Pressure Error:  0.89E+02 on Mesh   1 at (   1   1  18)
       ---------------------------------------------------------------
       Max CFL number:  0.33E+00 at (   1,   1,  20)
       Max divergence:  0.15E-03 at (   1,   1,  21)
       Min divergence: -0.11E-03 at (   1,   1,  12)
       Max VN number:   0.27E-03 at (  32,   1,  32)
 
       Time Step       2   June 23, 2020  17:41:08
       Step Size:    0.200E-02 s, Total Time:      0.004 s
       Pressure Iterations:      7
       Maximum Velocity Error:  0.11E-01 on Mesh   1 at (  13   1  20)
       Maximum Pressure Error:  0.24E+01 on Mesh   1 at (  13   1  13)
       ---------------------------------------------------------------
       Max CFL number:  0.32E+00 at (   1,   1,  20)
       Max divergence:  0.15E-03 at (   1,   1,  21)
       Min divergence: -0.10E-03 at (   1,   1,  12)
       Max VN number:   0.27E-03 at (  32,   1,  32)
 
       Time Step       3   June 23, 2020  17:41:08
       Step Size:    0.200E-02 s, Total Time:      0.006 s
       Pressure Iterations:      1
       Maximum Velocity Error:  0.11E-01 on Mesh   1 at (  13   1  20)
       Maximum Pressure Error:  0.65E-02 on Mesh   1 at (  13   1  13)
       ---------------------------------------------------------------
       Max CFL number:  0.31E+00 at (   1,   1,  20)
       Max divergence:  0.14E-03 at (   1,   1,  21)
       Min divergence: -0.10E-03 at (   1,   1,  12)
       Max VN number:   0.27E-03 at (  32,   1,  32)
 
       Time Step       4   June 23, 2020  17:41:08
       Step Size:    0.200E-02 s, Total Time:      0.008 s
       Pressure Iterations:      1
       Maximum Velocity Error:  0.52E-02 on Mesh   1 at (  13   1  19)
       Maximum Pressure Error:  0.49E-02 on Mesh   1 at (  13   1  13)
       ---------------------------------------------------------------
       Max CFL number:  0.30E+00 at (   1,   1,  20)
       Max divergence:  0.13E-03 at (   1,   1,  21)
       Min divergence: -0.97E-04 at (   1,   1,  12)
       Max VN number:   0.27E-03 at (  32,   1,  32)
 
       Time Step       5   June 23, 2020  17:41:08
       Step Size:    0.200E-02 s, Total Time:       0.01 s
       Pressure Iterations:      1
       Maximum Velocity Error:  0.15E-02 on Mesh   1 at (  13   1  20)
       Maximum Pressure Error:  0.28E-02 on Mesh   1 at (  13   1  13)
       ---------------------------------------------------------------
       Max CFL number:  0.29E+00 at (   1,   1,  20)
       Max divergence:  0.13E-03 at (   1,   1,  21)
       Min divergence: -0.93E-04 at (   1,   1,  12)
       Max VN number:   0.27E-03 at (  32,   1,  32)
 
       Time Step       6   June 23, 2020  17:41:08
       Step Size:    0.200E-02 s, Total Time:       0.01 s
       Pressure Iterations:      1
       Maximum Velocity Error:  0.44E-02 on Mesh   1 at (  13   1  20)
       Maximum Pressure Error:  0.42E-02 on Mesh   1 at (  12   1  20)
       ---------------------------------------------------------------
       Max CFL number:  0.29E+00 at (   1,   1,  20)
       Max divergence:  0.12E-03 at (   2,   1,  21)
       Min divergence: -0.88E-04 at (   1,   1,  12)
       Max VN number:   0.27E-03 at (  32,   1,  32)
 
       Time Step       7   June 23, 2020  17:41:08
       Step Size:    0.200E-02 s, Total Time:       0.01 s
       Pressure Iterations:      1
       Maximum Velocity Error:  0.41E-02 on Mesh   1 at (  13   1  20)
       Maximum Pressure Error:  0.81E-02 on Mesh   1 at (  12   1  18)
       ---------------------------------------------------------------
       Max CFL number:  0.28E+00 at (   1,   1,  20)
       Max divergence:  0.12E-03 at (   2,   1,  21)
       Min divergence: -0.84E-04 at (   1,   1,  12)
       Max VN number:   0.27E-03 at (  32,   1,  32)
 
       Time Step       8   June 23, 2020  17:41:08
       Step Size:    0.200E-02 s, Total Time:       0.02 s
       Pressure Iterations:      1
       Maximum Velocity Error:  0.24E-02 on Mesh   1 at (  13   1  20)
       Maximum Pressure Error:  0.85E-02 on Mesh   1 at (  13   1  13)
       ---------------------------------------------------------------
       Max CFL number:  0.27E+00 at (   1,   1,  20)
       Max divergence:  0.12E-03 at (   2,   1,  21)
       Min divergence: -0.80E-04 at (   1,   1,  12)
       Max VN number:   0.27E-03 at (  32,   1,  32)
 
       Time Step       9   June 23, 2020  17:41:08
       Step Size:    0.200E-02 s, Total Time:       0.02 s
       Pressure Iterations:      1
       Maximum Velocity Error:  0.98E-03 on Mesh   1 at (  13   1  20)
       Maximum Pressure Error:  0.65E-02 on Mesh   1 at (  13   1  13)
       ---------------------------------------------------------------
       Max CFL number:  0.26E+00 at (   1,   1,  20)
       Max divergence:  0.12E-03 at (   2,   1,  21)
       Min divergence: -0.76E-04 at (   1,   1,  12)
       Max VN number:   0.27E-03 at (  32,   1,  32)
 
       Time Step      10   June 23, 2020  17:41:08
       Step Size:    0.200E-02 s, Total Time:       0.02 s
       Pressure Iterations:      1
       Maximum Velocity Error:  0.47E-03 on Mesh   1 at (  13   1  17)
       Maximum Pressure Error:  0.42E-02 on Mesh   1 at (  13   1  13)
       ---------------------------------------------------------------
       Max CFL number:  0.26E+00 at (   1,   1,  20)
       Max divergence:  0.12E-03 at (   2,   1,  21)
       Min divergence: -0.74E-04 at (   2,   1,  12)
       Max VN number:   0.27E-03 at (  32,   1,  32)
 
       Time Step      20   June 23, 2020  17:41:08
       Step Size:    0.200E-02 s, Total Time:       0.04 s
       Pressure Iterations:      1
       Maximum Velocity Error:  0.10E-02 on Mesh   1 at (  13   1  20)
       Maximum Pressure Error:  0.36E-02 on Mesh   1 at (  13   1  13)
       ---------------------------------------------------------------
       Max CFL number:  0.23E+00 at (   2,   1,  20)
       Max divergence:  0.11E-03 at (  12,   1,  21)
       Min divergence: -0.61E-04 at (   2,   1,  12)
       Max VN number:   0.27E-03 at (  32,   1,  32)
 
       Time Step      30   June 23, 2020  17:41:09
       Step Size:    0.200E-02 s, Total Time:       0.06 s
       Pressure Iterations:      1
       Maximum Velocity Error:  0.10E-02 on Mesh   1 at (  20   1  13)
       Maximum Pressure Error:  0.14E-02 on Mesh   1 at (  13   1  13)
       ---------------------------------------------------------------
       Max CFL number:  0.22E+00 at (   3,   1,  20)
       Max divergence:  0.13E-03 at (  12,   1,  22)
       Min divergence: -0.51E-04 at (   3,   1,  12)
       Max VN number:   0.27E-03 at (  32,   1,  32)
 
       Time Step      40   June 23, 2020  17:41:09
       Step Size:    0.200E-02 s, Total Time:       0.08 s
       Pressure Iterations:      1
       Maximum Velocity Error:  0.57E-03 on Mesh   1 at (  13   1  20)
       Maximum Pressure Error:  0.15E-02 on Mesh   1 at (  13   1  13)
       ---------------------------------------------------------------
       Max CFL number:  0.21E+00 at (   3,   1,  20)
       Max divergence:  0.14E-03 at (  12,   1,  22)
       Min divergence: -0.41E-04 at (   4,   1,  12)
       Max VN number:   0.27E-03 at (  32,   1,  32)
 
       Time Step      50   June 23, 2020  17:41:09
       Step Size:    0.200E-02 s, Total Time:       0.10 s
       Pressure Iterations:      1
       Maximum Velocity Error:  0.20E-03 on Mesh   1 at (  20   1  14)
       Maximum Pressure Error:  0.14E-02 on Mesh   1 at (  13   1  13)
       ---------------------------------------------------------------
       Max CFL number:  0.21E+00 at (  12,   1,  22)
       Max divergence:  0.13E-03 at (  12,   1,  22)
       Min divergence: -0.37E-04 at (   1,   1,  22)
       Max VN number:   0.27E-03 at (  32,   1,  32)
 
       Time Step      60   June 23, 2020  17:41:09
       Step Size:    0.200E-02 s, Total Time:       0.12 s
       Pressure Iterations:      1
       Maximum Velocity Error:  0.36E-03 on Mesh   1 at (  13   1  20)
       Maximum Pressure Error:  0.11E-02 on Mesh   1 at (  12   1  20)
       ---------------------------------------------------------------
       Max CFL number:  0.19E+00 at (  12,   1,  22)
       Max divergence:  0.12E-03 at (  12,   1,  22)
       Min divergence: -0.53E-04 at (   1,   1,  22)
       Max VN number:   0.27E-03 at (  32,   1,  32)
 
       Time Step      70   June 23, 2020  17:41:09
       Step Size:    0.200E-02 s, Total Time:       0.14 s
       Pressure Iterations:      1
       Maximum Velocity Error:  0.42E-03 on Mesh   1 at (  13   1  20)
       Maximum Pressure Error:  0.15E-02 on Mesh   1 at (  13   1  13)
       ---------------------------------------------------------------
       Max CFL number:  0.19E+00 at (  12,   1,  22)
       Max divergence:  0.14E-03 at (  16,   1,   2)
       Min divergence: -0.63E-04 at (   1,   1,  22)
       Max VN number:   0.27E-03 at (  32,   1,  32)
 
       Time Step      80   June 23, 2020  17:41:09
       Step Size:    0.200E-02 s, Total Time:       0.16 s
       Pressure Iterations:      1
       Maximum Velocity Error:  0.11E-02 on Mesh   1 at (  20   1  13)
       Maximum Pressure Error:  0.12E-02 on Mesh   1 at (  13   1  18)
       ---------------------------------------------------------------
       Max CFL number:  0.20E+00 at (  12,   1,  23)
       Max divergence:  0.15E-03 at (  16,   1,   2)
       Min divergence: -0.70E-04 at (   1,   1,  22)
       Max VN number:   0.27E-03 at (  32,   1,  32)
 
       Time Step      90   June 23, 2020  17:41:09
       Step Size:    0.200E-02 s, Total Time:       0.18 s
       Pressure Iterations:      1
       Maximum Velocity Error:  0.56E-03 on Mesh   1 at (  13   1  20)
       Maximum Pressure Error:  0.12E-02 on Mesh   1 at (  13   1  21)
       ---------------------------------------------------------------
       Max CFL number:  0.22E+00 at (  12,   1,  23)
       Max divergence:  0.16E-03 at (  17,   1,   2)
       Min divergence: -0.75E-04 at (   1,   1,  22)
       Max VN number:   0.27E-03 at (  32,   1,  32)
 
       Time Step     100   June 23, 2020  17:41:09
       Step Size:    0.200E-02 s, Total Time:       0.20 s
       Pressure Iterations:      1
       Maximum Velocity Error:  0.53E-03 on Mesh   1 at (  13   1  20)
       Maximum Pressure Error:  0.12E-02 on Mesh   1 at (  12   1  19)
       ---------------------------------------------------------------
       Max CFL number:  0.22E+00 at (  23,   1,  12)
       Max divergence:  0.17E-03 at (  17,   1,   2)
       Min divergence: -0.78E-04 at (   1,   1,  22)
       Max VN number:   0.27E-03 at (  32,   1,  32)
 
       Time Step     200   June 23, 2020  17:41:10
       Step Size:    0.200E-02 s, Total Time:       0.40 s
       Pressure Iterations:      1
       Maximum Velocity Error:  0.12E-02 on Mesh   1 at (  13   1  20)
       Maximum Pressure Error:  0.37E-02 on Mesh   1 at (  13   1  19)
       ---------------------------------------------------------------
       Max CFL number:  0.25E+00 at (  26,   1,  13)
       Max divergence:  0.16E-03 at (  12,   1,  26)
       Min divergence: -0.60E-04 at (  23,   1,  15)
       Max VN number:   0.27E-03 at (  32,   1,  32)
 
       Time Step     250   June 23, 2020  17:41:11
       Step Size:    0.200E-02 s, Total Time:       0.50 s
       Pressure Iterations:      1
       Maximum Velocity Error:  0.65E-03 on Mesh   1 at (  20   1  13)
       Maximum Pressure Error:  0.22E-02 on Mesh   1 at (  15   1  12)
       ---------------------------------------------------------------
       Max CFL number:  0.28E+00 at (  12,   1,  25)
       Max divergence:  0.20E-03 at (  12,   1,  24)
       Min divergence: -0.77E-04 at (   5,   1,  11)
       Max VN number:   0.27E-03 at (  32,   1,  32)
 


 Time Stepping Wall Clock Time (s):        2.534
 Total Elapsed Wall Clock Time (s):        4.737

STOP: FDS completed successfully (CHID: pressure_iteration2d_1mesh)
