
 Fire Dynamics Simulator

 Current Date     : June 26, 2020  16:19:17
 Revision         : -AMG
 Revision Date    : Fri Jun 26 15:19:14 2020 +0200
 Compiler         : Intel ifort 19.0.5.281
 Compilation Date : Jun 26, 2020 15:25:32

 MPI Enabled;    Number of MPI Processes:       8
 OpenMP Enabled; Number of OpenMP Threads:      2

 MPI version: 3.1
 MPI library version: Intel(R) MPI Library 2018 Update 1 for Linux* OS


 Job TITLE        : Example of a tunnel simulation with structured ScaRC solver
 Job ID string    : tunnel_demo_scarc_amg


 Grid Dimensions, Mesh     1

   Cells in the X Direction            80
   Cells in the Y Direction            20
   Cells in the Z Direction            20
   Number of Grid Cells             32000


 Physical Dimensions, Mesh     1

   Length (m)                      16.000
   Width  (m)                       4.000
   Height (m)                       4.000
   Initial Time Step (s)            0.158

 Grid Dimensions, Mesh     2

   Cells in the X Direction            80
   Cells in the Y Direction            20
   Cells in the Z Direction            20
   Number of Grid Cells             32000


 Physical Dimensions, Mesh     2

   Length (m)                      16.000
   Width  (m)                       4.000
   Height (m)                       4.000
   Initial Time Step (s)            0.158

 Grid Dimensions, Mesh     3

   Cells in the X Direction            80
   Cells in the Y Direction            20
   Cells in the Z Direction            20
   Number of Grid Cells             32000


 Physical Dimensions, Mesh     3

   Length (m)                      16.000
   Width  (m)                       4.000
   Height (m)                       4.000
   Initial Time Step (s)            0.158

 Grid Dimensions, Mesh     4

   Cells in the X Direction            80
   Cells in the Y Direction            20
   Cells in the Z Direction            20
   Number of Grid Cells             32000


 Physical Dimensions, Mesh     4

   Length (m)                      16.000
   Width  (m)                       4.000
   Height (m)                       4.000
   Initial Time Step (s)            0.158

 Grid Dimensions, Mesh     5

   Cells in the X Direction            80
   Cells in the Y Direction            20
   Cells in the Z Direction            20
   Number of Grid Cells             32000


 Physical Dimensions, Mesh     5

   Length (m)                      16.000
   Width  (m)                       4.000
   Height (m)                       4.000
   Initial Time Step (s)            0.158

 Grid Dimensions, Mesh     6

   Cells in the X Direction            80
   Cells in the Y Direction            20
   Cells in the Z Direction            20
   Number of Grid Cells             32000


 Physical Dimensions, Mesh     6

   Length (m)                      16.000
   Width  (m)                       4.000
   Height (m)                       4.000
   Initial Time Step (s)            0.158

 Grid Dimensions, Mesh     7

   Cells in the X Direction            80
   Cells in the Y Direction            20
   Cells in the Z Direction            20
   Number of Grid Cells             32000


 Physical Dimensions, Mesh     7

   Length (m)                      16.000
   Width  (m)                       4.000
   Height (m)                       4.000
   Initial Time Step (s)            0.158

 Grid Dimensions, Mesh     8

   Cells in the X Direction            80
   Cells in the Y Direction            20
   Cells in the Z Direction            20
   Number of Grid Cells             32000


 Physical Dimensions, Mesh     8

   Length (m)                      16.000
   Width  (m)                       4.000
   Height (m)                       4.000
   Initial Time Step (s)            0.158

Total Number of Grid Cells        256000


 Miscellaneous Parameters

   Simulation Start Time (s)          0.0
   Simulation End Time (s)           30.0
   LES Calculation
   Eddy Viscosity:           Deardorff Model (C_DEARDORFF = 0.10)
   Near-wall Eddy Viscosity: Smagorinsky with Van Driest damping (C_SMAGORINSKY = 0.20)
   Turbulent Prandtl Number:         0.50
   Turbulent Schmidt Number:         0.50
   Ambient Temperature (C):         20.00


 Mass Fraction Transformation Matrix to Convert Species Mixtures (Columns) to Primitive Species (Rows)

                         AIR       PROPANE   PRODUCTS
   PROPANE               0.000000  1.000000  0.000000
   NITROGEN              0.762470  0.000000  0.716347
   OXYGEN                0.230997  0.000000  0.000000
   CARBON DIOXIDE        0.000591  0.000000  0.178383
   CARBON MONOXIDE       0.000000  0.000000  0.000000
   WATER VAPOR           0.005941  0.000000  0.104363
   SOOT                  0.000000  0.000000  0.000907
   HYDROGEN              0.000000  0.000000  0.000000


 Primitive Species Information

   PROPANE
   Gas Species
   Molecular Weight (g/mol)            44.09562
   Ambient Density (kg/m^3)            1.833
   Enthalpy of Formation (J/kg)       -2.37E+06

   NITROGEN
   Gas Species
   Molecular Weight (g/mol)            28.01340
   Ambient Density (kg/m^3)            1.165
   Enthalpy of Formation (J/kg)        0.00E+00

   OXYGEN
   Gas Species
   Molecular Weight (g/mol)            31.99880
   Ambient Density (kg/m^3)            1.330
   Enthalpy of Formation (J/kg)        0.00E+00

   CARBON DIOXIDE
   Gas Species
   Molecular Weight (g/mol)            44.00950
   Ambient Density (kg/m^3)            1.830
   Enthalpy of Formation (J/kg)       -8.94E+06

   CARBON MONOXIDE
   Gas Species
   Molecular Weight (g/mol)            28.01010
   Ambient Density (kg/m^3)            1.164
   Enthalpy of Formation (J/kg)       -3.95E+06

   WATER VAPOR
   Gas Species
   Molecular Weight (g/mol)            18.01528
   Ambient Density (kg/m^3)            0.749
   Enthalpy of Formation (J/kg)       -1.34E+07

   SOOT
   Gas Species
   Molecular Weight (g/mol)            10.91042
   Ambient Density (kg/m^3)            0.454
   Enthalpy of Formation (J/kg)        0.00E+00

   HYDROGEN
   Gas Species
   Molecular Weight (g/mol)             2.01588
   Ambient Density (kg/m^3)            0.084
   Enthalpy of Formation (J/kg)        0.00E+00


 Tracked (Lumped) Species Information

   AIR
   Molecular Weight (g/mol)            28.75199
   Ambient Density (kg/m^3)            1.195
   Initial Mass Fraction               1.000
   Enthalpy of Formation (J/kg)     -8.50E+04

   Sub Species                    Mass Fraction     Mole Fraction
   NITROGEN                       7.624701E-01      7.825730E-01
   OXYGEN                         2.309974E-01      2.075589E-01
   CARBON DIOXIDE                 5.914651E-04      3.864120E-04
   WATER VAPOR                    5.940984E-03      9.481679E-03
 
     Viscosity (kg/m/s) Ambient,  293 K:  1.80E-05
                                  500 K:  2.61E-05
                                 1000 K:  4.13E-05
                                 1500 K:  5.37E-05
   Therm. Cond. (W/m/K) Ambient,  293 K:  2.56E-02
                                  500 K:  3.81E-02
                                 1000 K:  6.69E-02
                                 1500 K:  9.25E-02
        Enthalpy (J/kg) Ambient,  293 K: -9.01E+04
                                  500 K:  1.22E+05
                                 1000 K:  6.72E+05
                                 1500 K:  1.27E+06
    Spec. Heat (J/kg/K) Ambient,  293 K:  1.02E+03
                                  500 K:  1.04E+03
                                 1000 K:  1.16E+03
                                 1500 K:  1.23E+03
   Diff. Coeff. (m^2/s) Ambient,  293 K:  1.99E-05
                                  500 K:  4.96E-05
                                 1000 K:  1.58E-04
                                 1500 K:  3.09E-04

   PROPANE
   Molecular Weight (g/mol)            44.09562
   Ambient Density (kg/m^3)            1.833
   Initial Mass Fraction               0.000
   Enthalpy of Formation (J/kg)     -2.37E+06

   Sub Species                    Mass Fraction     Mole Fraction
   PROPANE                        1.000000E+00      1.000000E+00
 
     Viscosity (kg/m/s) Ambient,  293 K:  8.08E-06
                                  500 K:  1.31E-05
                                 1000 K:  2.23E-05
                                 1500 K:  2.96E-05
   Therm. Cond. (W/m/K) Ambient,  293 K:  1.66E-02
                                  500 K:  4.18E-02
                                 1000 K:  1.11E-01
                                 1500 K:  1.72E-01
        Enthalpy (J/kg) Ambient,  293 K: -2.38E+06
                                  500 K: -1.95E+06
                                 1000 K: -2.77E+05
                                 1500 K:  1.90E+06
    Spec. Heat (J/kg/K) Ambient,  293 K:  1.65E+03
                                  500 K:  2.55E+03
                                 1000 K:  3.96E+03
                                 1500 K:  4.67E+03
   Diff. Coeff. (m^2/s) Ambient,  293 K:  1.11E-05
                                  500 K:  2.86E-05
                                 1000 K:  9.32E-05
                                 1500 K:  1.83E-04

   PRODUCTS
   Molecular Weight (g/mol)            28.16819
   Ambient Density (kg/m^3)            1.171
   Initial Mass Fraction               0.000
   Enthalpy of Formation (J/kg)     -3.00E+06

   Sub Species                    Mass Fraction     Mole Fraction
   NITROGEN                       7.163468E-01      7.203050E-01
   CARBON DIOXIDE                 1.783831E-01      1.141737E-01
   CARBON MONOXIDE                0.000000E+00      0.000000E+00
   WATER VAPOR                    1.043628E-01      1.631787E-01
   SOOT                           9.073796E-04      2.342644E-03
 
     Viscosity (kg/m/s) Ambient,  293 K:  1.61E-05
                                  500 K:  2.39E-05
                                 1000 K:  3.89E-05
                                 1500 K:  5.14E-05
   Therm. Cond. (W/m/K) Ambient,  293 K:  2.34E-02
                                  500 K:  3.62E-02
                                 1000 K:  6.71E-02
                                 1500 K:  9.63E-02
        Enthalpy (J/kg) Ambient,  293 K: -3.00E+06
                                  500 K: -2.77E+06
                                 1000 K: -2.16E+06
                                 1500 K: -1.48E+06
    Spec. Heat (J/kg/K) Ambient,  293 K:  1.09E+03
                                  500 K:  1.14E+03
                                 1000 K:  1.30E+03
                                 1500 K:  1.40E+03
   Diff. Coeff. (m^2/s) Ambient,  293 K:  1.95E-05
                                  500 K:  4.96E-05
                                 1000 K:  1.60E-04
                                 1500 K:  3.15E-04


 Gas Phase Reaction Information

   Fuel                                           Heat of Combustion (kJ/kg)
   PROPANE                                                        45831.0920

   Stoichiometry

   Primitive Species Stoich. Coeff.
   Species ID                                                          Molar
   PROPANE                                                         -1.000000
   OXYGEN                                                          -4.943923
   CARBON DIOXIDE                                                   2.945438
   WATER VAPOR                                                      3.996969
   SOOT                                                             0.060624

   Tracked (Lumped) Species Stoich. Coeff.
   Species ID                                             Molar         Mass
   AIR                                               -23.819373   -15.531119
   PROPANE                                            -1.000000    -1.000000
   PRODUCTS                                           25.878481    16.531119

   Reaction Kinetics

   Arrhenius Parameters
   Pre-exponential:    Infinite
   Activation Energy:  N/A

   ODE Solver:  EXPLICIT EULER
   Extinction Model:  EXTINCTION 2
   Auto-Ignition Temperature (K):       0.0
   Critical Flame Temperature (K):   1720.2


 Material Information


 Surface Conditions

   0 INERT (DEFAULT)

   1 fire
     HRR Per Unit Area (kW/m2)       2000.0
     PROPANE Mass Flux (kg/s/m2)   4.36E-02

   2 OPEN
     Passive Vent to Atmosphere

   3 MIRROR
     Symmetry Plane

   4 INTERPOLATED

   5 PERIODIC

   6 HVAC

   7 MASSLESS TRACER

   8 DROPLET

   9 EVACUATION_OUTFLOW
     Normal Velocity (m/s)         0.000

  10 MASSLESS TARGET

  11 PERIODIC WIND


 Device Coordinates

     1 Coords:      0.002000      0.000000      0.002000, Make: null, ID: cpu, Quantity: CPU TIME


 Slice File Information, Mesh     1

   Sampling Interval (s)             0.030

   1 Nodes:   0  80  10  10   0  20, Quantity: TEMPERATURE
   2 Nodes:   0  80  10  10   0  20, Quantity: U-VELOCITY
   3 Nodes:   0  80  10  10   0  20, Quantity: V-VELOCITY
   4 Nodes:   0  80  10  10   0  20, Quantity: W-VELOCITY
   5 Nodes:   0  80  11  11   0  20, Quantity: H


 Radiation Model Information

   Number of control angles  104
   Time step increment         3
   Angle increment             5
   Theta band N_phi   Solid angle
     1:        4     0.120
     2:       12     0.114
     3:       16     0.127
     4:       20     0.120
     5:       20     0.120
     6:       16     0.127
     7:       12     0.114
     8:        4     0.120
   Using gray gas absorption.
   Mean beam length  0.100 m


 SCARC Information

   Discretization             STRUCTURED
   Global solver               MULTIGRID
   Storage technique             COMPACT
   Smoother                         SSOR
   Coarsening strategy        AGGREGATED
   Coarse grid solver             DIRECT
   MKL precision                  DOUBLE
   Cycle type                          V
   Max iterations                    100
   Stopping accuracy            0.10E-07
   Interpolation method         CONSTANT
 
 

 Run Time Diagnostics

       Time Step       1   June 26, 2020  16:19:27
       Step Size:    0.158E+00 s, Total Time:       0.16 s
       Pressure Iterations:      1
       Maximum Velocity Error:  0.16E-17 on Mesh   2 at (  81   3   6)
       Maximum Pressure Error:  0.19E+01 on Mesh   3 at (  41  11   1)
       ScaRC: iterations   100, residual  0.54E-01, convergence rate   0.96E+00
       ---------------------------------------------------------------
       Mesh    1
       Max CFL number:  0.15E-01 at (  42,  14,  16)
       Max divergence:  0.43E-04 at (   1,   1,   1)
       Min divergence: -0.99E-04 at (  15,   2,  20)
       Max div. error:  0.99E-04 at (  15,   2,  20)
       Max VN number:   0.11E-01 at (  17,  11,   8)
       Mesh    2
       Max CFL number:  0.15E-01 at (  57,  10,   4)
       Max divergence:  0.19E-04 at (   1,   1,   1)
       Min divergence: -0.60E-04 at (   1,   2,   2)
       Max div. error:  0.60E-04 at (   1,   2,   2)
       Max VN number:   0.12E-01 at (  57,  12,   4)
       Radiation Loss to Boundaries:        -0.001 kW
       Mesh    3
       Max CFL number:  0.15E-01 at (  15,  13,   9)
       Max divergence:  0.20E-05 at (  41,  13,   2)
       Min divergence: -0.13E-02 at (  50,  10,   1)
       Max div. error:  0.15E-06 at (  80,   2,  20)
       Max VN number:   0.11E-01 at (  56,  17,  10)
       Radiation Loss to Boundaries:        -0.001 kW
       Mesh    4
       Max CFL number:  0.15E-01 at (  24,   4,   9)
       Max divergence:  0.12E-05 at (  45,  15,   8)
       Min divergence: -0.12E-05 at (  55,  18,  11)
       Max div. error:  0.15E-06 at (  80,   2,  20)
       Max VN number:   0.11E-01 at (  45,   3,   7)
       Radiation Loss to Boundaries:        -0.001 kW
       Mesh    5
       Max CFL number:  0.15E-01 at (  21,   7,   8)
       Max divergence:  0.13E-05 at (  77,  10,  15)
       Min divergence: -0.12E-05 at (   3,   8,  11)
       Max div. error:  0.15E-06 at (  80,   2,  20)
       Max VN number:   0.11E-01 at (  59,  11,   8)
       Radiation Loss to Boundaries:        -0.001 kW
       Mesh    6
       Max CFL number:  0.15E-01 at (  79,  18,   7)
       Max divergence:  0.12E-05 at (  55,   6,  10)
       Min divergence: -0.12E-05 at (  78,  15,  10)
       Max div. error:  0.15E-06 at (  80,   2,  20)
       Max VN number:   0.11E-01 at (  78,  15,   2)
       Radiation Loss to Boundaries:        -0.001 kW
       Mesh    7
       Max CFL number:  0.15E-01 at (  22,  18,   8)
       Max divergence:  0.12E-05 at (  47,  10,  11)
       Min divergence: -0.13E-05 at (  79,  11,  10)
       Max div. error:  0.15E-06 at (  80,   2,  20)
       Max VN number:   0.11E-01 at (  65,   9,   8)
       Radiation Loss to Boundaries:        -0.001 kW
       Mesh    8
       Max CFL number:  0.15E-01 at (  20,  19,  15)
       Max divergence:  0.11E-05 at (  55,  12,  15)
       Min divergence: -0.12E-05 at (  17,  19,  16)
       Max div. error:  0.14E-06 at (   1,   2,  20)
       Max VN number:   0.11E-01 at (  31,  15,  12)
 
       Time Step       2   June 26, 2020  16:19:44
       Step Size:    0.158E+00 s, Total Time:       0.32 s
       Pressure Iterations:      3
       Maximum Velocity Error:  0.20E-15 on Mesh   2 at (  81   2   1)
       Maximum Pressure Error:  0.26E+03 on Mesh   3 at (  41   8   1)
       ScaRC: iterations   100, residual  0.27E+01, convergence rate   0.98E+00
       ---------------------------------------------------------------
       Mesh    1
       Max CFL number:  0.15E-01 at (  42,  14,  16)
       Max divergence:  0.21E-02 at (   1,   1,   1)
       Min divergence: -0.49E-02 at (  15,   2,  20)
       Max div. error:  0.49E-02 at (  15,   2,  20)
       Max VN number:   0.11E-01 at (  17,  11,   8)
       Mesh    2
       Max CFL number:  0.15E-01 at (  57,  10,   4)
       Max divergence:  0.97E-03 at (   1,   1,   1)
       Min divergence: -0.29E-02 at (   1,   2,   2)
       Max div. error:  0.29E-02 at (   1,   2,   2)
       Max VN number:   0.12E-01 at (  57,  12,   4)
       Radiation Loss to Boundaries:        -0.001 kW
       Mesh    3
       Max CFL number:  0.16E-01 at (  41,  13,   1)
       Max divergence:  0.35E+01 at (  42,   8,   1)
       Min divergence: -0.64E-05 at (   1,  20,  20)
       Max div. error:  0.74E-05 at (  80,   2,  20)
       Max VN number:   0.11E-01 at (  56,  17,  10)
       Total Heat Release Rate:           1005.003 kW
       Radiation Loss to Boundaries:        -0.001 kW
       Mesh    4
       Max CFL number:  0.16E-01 at (  24,   4,   9)
       Max divergence:  0.73E-05 at (  80,   2,  20)
       Min divergence: -0.63E-05 at (   1,  20,  20)
       Max div. error:  0.74E-05 at (  80,   2,  20)
       Max VN number:   0.11E-01 at (  45,   3,   7)
       Radiation Loss to Boundaries:        -0.001 kW
       Mesh    5
       Max CFL number:  0.16E-01 at (  21,   7,   8)
       Max divergence:  0.77E-05 at (  80,   2,  20)
       Min divergence: -0.63E-05 at (   1,  20,  20)
       Max div. error:  0.74E-05 at (  80,   2,  20)
       Max VN number:   0.11E-01 at (  59,  11,   8)
       Radiation Loss to Boundaries:        -0.001 kW
       Mesh    6
       Max CFL number:  0.16E-01 at (  79,  18,   7)
       Max divergence:  0.74E-05 at (  80,   1,  20)
       Min divergence: -0.62E-05 at (   1,  20,  20)
       Max div. error:  0.74E-05 at (  80,   2,  20)
       Max VN number:   0.11E-01 at (  78,  15,   2)
       Radiation Loss to Boundaries:        -0.001 kW
       Mesh    7
       Max CFL number:  0.15E-01 at (  55,   4,   9)
       Max divergence:  0.74E-05 at (  80,   2,  20)
       Min divergence: -0.67E-05 at (   1,  20,  20)
       Max div. error:  0.74E-05 at (  80,   2,  20)
       Max VN number:   0.11E-01 at (  65,   9,   8)
       Radiation Loss to Boundaries:        -0.001 kW
       Mesh    8
       Max CFL number:  0.15E-01 at (  56,  15,  17)
       Max divergence:  0.73E-05 at (   1,   2,  20)
       Min divergence: -0.65E-05 at (   1,  20,  20)
       Max div. error:  0.70E-05 at (   1,   2,  20)
       Max VN number:   0.11E-01 at (  31,  15,  12)
 
       Time Step       3   June 26, 2020  16:20:15
       Step Size:    0.158E+00 s, Total Time:       0.47 s
       Pressure Iterations:      5
       Maximum Velocity Error:  0.96E-16 on Mesh   2 at (  81   1  17)
       Maximum Pressure Error:  0.44E+03 on Mesh   3 at (  41   6   1)
       ScaRC: iterations   100, residual  0.28E-02, convergence rate   0.87E+00
       ---------------------------------------------------------------
       Mesh    1
       Max CFL number:  0.15E-01 at (  45,  18,  17)
       Max divergence:  0.17E-05 at (  41,   6,   3)
       Min divergence: -0.50E-05 at (  12,   3,  16)
       Max div. error:  0.51E-05 at (  15,   2,  20)
       Max VN number:   0.11E-01 at (  17,  11,   8)
       Radiation Loss to Boundaries:         0.009 kW
       Mesh    2
       Max CFL number:  0.15E-01 at (  57,  10,   4)
       Max divergence:  0.12E-05 at (  12,   3,  16)
       Min divergence: -0.19E-05 at (   1,   2,   1)
       Max div. error:  0.31E-05 at (   1,   2,   2)
       Max VN number:   0.12E-01 at (  57,  12,   4)
       Mesh    3
       Max CFL number:  0.88E+00 at (  50,  10,   1)
       Max divergence:  0.58E+01 at (  46,  10,   1)
       Min divergence: -0.59E-05 at (  47,  16,   3)
       Max VN number:   0.48E+00 at (  48,  10,   1)
       Total Heat Release Rate:           2082.996 kW
       Radiation Loss to Boundaries:      -164.367 kW
       Mesh    4
       Max CFL number:  0.14E+00 at (  24,   4,   9)
       Max divergence:  0.12E-05 at (  72,  17,   7)
       Min divergence: -0.12E-05 at (  55,  18,  11)
       Max VN number:   0.48E-01 at (   9,   1,   1)
       Radiation Loss to Boundaries:        -0.001 kW
       Mesh    5
       Max CFL number:  0.14E+00 at (  21,   7,   8)
       Max divergence:  0.13E-05 at (  77,  10,  15)
       Min divergence: -0.13E-05 at (   3,   8,  11)
       Max VN number:   0.48E-01 at (  34,   1,  20)
       Radiation Loss to Boundaries:        -0.001 kW
       Mesh    6
       Max CFL number:  0.14E+00 at (  38,   4,  16)
       Max divergence:  0.13E-05 at (  55,   2,   3)
       Min divergence: -0.12E-05 at (  78,  15,  10)
       Max VN number:   0.48E-01 at (  11,  20,  20)
       Radiation Loss to Boundaries:        -0.001 kW
       Mesh    7
       Max CFL number:  0.14E+00 at (  57,   7,   3)
       Max divergence:  0.12E-05 at (  47,  10,  11)
       Min divergence: -0.12E-05 at (  79,  11,  10)
       Max VN number:   0.48E-01 at (  55,  20,   1)
       Radiation Loss to Boundaries:        -0.001 kW
       Mesh    8
       Max CFL number:  0.14E+00 at (  56,  15,  17)
       Max divergence:  0.11E-05 at (  55,  12,  15)
       Min divergence: -0.12E-05 at (  17,  19,  16)
       Max VN number:   0.48E-01 at (  37,   1,   1)
 
       Time Step       4   June 26, 2020  16:21:21
       Step Size:    0.638E-01 s, Total Time:       0.54 s
       Pressure Iterations:      7
       Maximum Velocity Error:  0.61E-17 on Mesh   2 at (  81  18  20)
       Maximum Pressure Error:  0.32E+03 on Mesh   3 at (  44  10   1)
       ScaRC: iterations   100, residual  0.13E+00, convergence rate   0.91E+00
       ---------------------------------------------------------------
       Mesh    1
       Max CFL number:  0.60E-02 at (  45,  18,  17)
       Max divergence:  0.96E-04 at (  15,   2,  20)
       Min divergence: -0.42E-04 at (   1,   1,   1)
       Max div. error:  0.94E-04 at (  15,   2,  20)
       Max VN number:   0.44E-02 at (  62,   6,  15)
       Radiation Loss to Boundaries:         0.009 kW
       Mesh    2
       Max CFL number:  0.61E-02 at (  16,  15,   8)
       Max divergence:  0.58E-04 at (   1,   2,   2)
       Min divergence: -0.20E-04 at (   1,   1,   1)
       Max div. error:  0.56E-04 at (   1,   2,   2)
       Max VN number:   0.47E-02 at (  57,  12,   4)
       Mesh    3
       Max CFL number:  0.61E+00 at (  49,  10,   1)
       Max divergence:  0.44E+01 at (  50,  11,   1)
       Min divergence: -0.10E-05 at (  10,  19,   2)
       Max div. error:  0.14E-06 at (  80,   2,  20)
       Max VN number:   0.22E+00 at (  50,  11,   1)
       Total Heat Release Rate:           3022.231 kW
       Radiation Loss to Boundaries:     -1205.877 kW
       Mesh    4
       Max CFL number:  0.10E+00 at (  24,   4,   9)
       Max divergence:  0.12E-05 at (  72,  17,   7)
       Min divergence: -0.12E-05 at (  55,  18,  11)
       Max div. error:  0.14E-06 at (  80,   2,  20)
       Max VN number:   0.40E-01 at (  75,  20,   1)
       Mesh    5
       Max CFL number:  0.10E+00 at (  21,   7,   8)
       Max divergence:  0.13E-05 at (  77,  10,  15)
       Min divergence: -0.13E-05 at (   3,   8,  11)
       Max div. error:  0.14E-06 at (  80,   2,  20)
       Max VN number:   0.40E-01 at (  34,   1,  20)
       Mesh    6
       Max CFL number:  0.10E+00 at (  38,   4,  16)
       Max divergence:  0.13E-05 at (  55,   2,   3)
       Min divergence: -0.12E-05 at (  78,  15,  10)
       Max div. error:  0.14E-06 at (  80,   2,  20)
       Max VN number:   0.40E-01 at (  11,  20,  20)
       Mesh    7
       Max CFL number:  0.10E+00 at (  57,   7,   3)
       Max divergence:  0.12E-05 at (  47,  10,  11)
       Min divergence: -0.13E-05 at (  28,  12,  12)
       Max div. error:  0.14E-06 at (  80,   2,  20)
       Max VN number:   0.40E-01 at (  55,  20,   1)
       Mesh    8
       Max CFL number:  0.10E+00 at (  51,   8,  12)
       Max divergence:  0.11E-05 at (  30,  12,   6)
       Min divergence: -0.12E-05 at (  17,  19,  16)
       Max div. error:  0.13E-06 at (   1,   2,  20)
       Max VN number:   0.40E-01 at (  37,   1,   1)
 
       Time Step       5   June 26, 2020  16:22:14
       Step Size:    0.702E-01 s, Total Time:       0.61 s
       Pressure Iterations:      9
       Maximum Velocity Error:  0.11E-16 on Mesh   2 at (  81   1   6)
       Maximum Pressure Error:  0.40E+03 on Mesh   3 at (  41   6   1)
       ScaRC: iterations   100, residual  0.91E-01, convergence rate   0.90E+00
       ---------------------------------------------------------------
       Mesh    1
       Max CFL number:  0.65E-02 at (  42,  14,  16)
       Max divergence:  0.76E-04 at (  15,   2,  20)
       Min divergence: -0.34E-04 at (   1,   1,   1)
       Max div. error:  0.74E-04 at (  15,   2,  20)
       Max VN number:   0.48E-02 at (  62,   6,  15)
       Radiation Loss to Boundaries:         0.009 kW
       Mesh    2
       Max CFL number:  0.66E-02 at (  57,  10,   4)
       Max divergence:  0.46E-04 at (   1,   2,   2)
       Min divergence: -0.16E-04 at (   1,   1,   1)
       Max div. error:  0.44E-04 at (   1,   2,   2)
       Max VN number:   0.51E-02 at (  57,  12,   4)
       Mesh    3
       Max CFL number:  0.58E+00 at (  50,   6,   1)
       Max divergence:  0.18E+01 at (  50,   5,   1)
       Min divergence: -0.35E+01 at (  44,  10,   1)
       Max div. error:  0.11E-06 at (  80,   2,  20)
       Max VN number:   0.21E+00 at (  50,  15,   1)
       Total Heat Release Rate:           3211.183 kW
       Radiation Loss to Boundaries:     -3746.813 kW
       Mesh    4
       Max CFL number:  0.10E+00 at (  70,   7,   5)
       Max divergence:  0.12E-05 at (  72,  17,   7)
       Min divergence: -0.12E-05 at (  55,  18,  11)
       Max div. error:  0.11E-06 at (  80,   2,  20)
       Max VN number:   0.40E-01 at (  75,  20,   1)
       Mesh    5
       Max CFL number:  0.10E+00 at (  21,   7,   8)
       Max divergence:  0.13E-05 at (  77,  10,  15)
       Min divergence: -0.13E-05 at (   3,   8,  11)
       Max div. error:  0.11E-06 at (  80,   2,  20)
       Max VN number:   0.40E-01 at (  34,   1,  20)
       Mesh    6
       Max CFL number:  0.10E+00 at (  57,  17,  11)
       Max divergence:  0.13E-05 at (  55,   2,   3)
       Min divergence: -0.12E-05 at (  78,  15,  10)
       Max div. error:  0.11E-06 at (  80,   2,  20)
       Max VN number:   0.40E-01 at (  11,  20,  20)
       Mesh    7
       Max CFL number:  0.10E+00 at (  57,   7,   3)
       Max divergence:  0.12E-05 at (  47,  10,  11)
       Min divergence: -0.13E-05 at (  28,  12,  12)
       Max div. error:  0.11E-06 at (  80,   2,  20)
       Max VN number:   0.40E-01 at (  55,  20,   1)
       Mesh    8
       Max CFL number:  0.10E+00 at (  51,   8,  12)
       Max divergence:  0.11E-05 at (  68,  17,   7)
       Min divergence: -0.12E-05 at (  17,  19,  16)
       Max div. error:  0.11E-06 at (   1,   2,  20)
       Max VN number:   0.40E-01 at (  37,   1,   1)
 
       Time Step       6   June 26, 2020  16:22:49
       Step Size:    0.772E-01 s, Total Time:       0.69 s
       Pressure Iterations:      1
       Maximum Velocity Error:  0.31E-14 on Mesh   2 at (  81   1   1)
       Maximum Pressure Error:  0.36E+03 on Mesh   3 at (  51  15   1)
       ScaRC: iterations   100, residual  0.83E+02, convergence rate   0.92E+00
       ---------------------------------------------------------------
       Mesh    1
       Max CFL number:  0.71E-02 at (  54,  16,  12)
       Max divergence:  0.32E-01 at (   1,   1,   1)
       Min divergence: -0.75E-01 at (  15,   2,  20)
       Max div. error:  0.75E-01 at (  15,   2,  20)
       Max VN number:   0.53E-02 at (  62,   6,  15)
       Radiation Loss to Boundaries:         0.009 kW
       Mesh    2
       Max CFL number:  0.73E-02 at (  57,  10,   4)
       Max divergence:  0.15E-01 at (   1,   1,   1)
       Min divergence: -0.45E-01 at (   1,   2,   2)
       Max div. error:  0.45E-01 at (   1,   2,   2)
       Max VN number:   0.56E-02 at (  57,  12,   4)
       Mesh    3
       Max CFL number:  0.66E+00 at (  42,  10,   1)
       Max divergence:  0.52E+01 at (  42,  15,   1)
       Min divergence: -0.34E+00 at (  50,  10,   1)
       Max div. error:  0.11E-03 at (  80,   2,  20)
       Max VN number:   0.14E+00 at (  40,  15,   1)
       Total Heat Release Rate:            978.843 kW
       Radiation Loss to Boundaries:      -340.702 kW
       Mesh    4
       Max CFL number:  0.35E-01 at (  50,   8,   3)
       Max divergence:  0.11E-03 at (  80,   2,  20)
       Min divergence: -0.97E-04 at (   1,  20,  20)
       Max div. error:  0.11E-03 at (  80,   2,  20)
       Max VN number:   0.63E-02 at (  27,  20,  20)
       Mesh    5
       Max CFL number:  0.35E-01 at (  64,  19,  12)
       Max divergence:  0.11E-03 at (  80,   2,  20)
       Min divergence: -0.97E-04 at (   1,  20,  20)
       Max div. error:  0.11E-03 at (  80,   2,  20)
       Max VN number:   0.62E-02 at (  32,  20,   1)
       Mesh    6
       Max CFL number:  0.36E-01 at (   6,  19,  13)
       Max divergence:  0.11E-03 at (  80,   2,  20)
       Min divergence: -0.96E-04 at (   1,  20,  20)
       Max div. error:  0.11E-03 at (  80,   2,  20)
       Max VN number:   0.62E-02 at (  74,   1,  20)
       Mesh    7
       Max CFL number:  0.35E-01 at (  71,  13,  17)
       Max divergence:  0.11E-03 at (  80,   2,  20)
       Min divergence: -0.97E-04 at (   1,  20,  20)
       Max div. error:  0.11E-03 at (  80,   2,  20)
       Max VN number:   0.62E-02 at (  59,   1,   1)
       Mesh    8
       Max CFL number:  0.36E-01 at (   5,   2,   2)
       Max divergence:  0.11E-03 at (   1,   2,  20)
       Min divergence: -0.97E-04 at (   1,  20,  20)
       Max div. error:  0.11E-03 at (   1,   2,  20)
       Max VN number:   0.65E-02 at (  58,  20,  20)
 
       Time Step       7   June 26, 2020  16:23:55
       Step Size:    0.849E-01 s, Total Time:       0.77 s
       Pressure Iterations:      8
       Maximum Velocity Error:  0.16E-14 on Mesh   2 at (  81   4   1)
       Maximum Pressure Error:  0.41E+03 on Mesh   3 at (  42  15   1)
       ScaRC: iterations   100, residual  0.67E-01, convergence rate   0.90E+00
       ---------------------------------------------------------------
       Mesh    1
       Max CFL number:  0.79E-02 at (  42,  14,  16)
       Max divergence:  0.48E-05 at (  12,   1,   1)
       Min divergence: -0.50E-04 at (  10,  18,  15)
       Max div. error:  0.67E-04 at (  15,   2,  20)
       Max VN number:   0.26E-01 at (  79,   1,  20)
       Radiation Loss to Boundaries:         0.089 kW
       Mesh    2
       Max CFL number:  0.83E-02 at (  77,  13,  15)
       Max divergence:  0.13E-05 at (  14,   5,   2)
       Min divergence: -0.24E-04 at (   1,   2,   2)
       Max div. error:  0.40E-04 at (   1,   2,   2)
       Max VN number:   0.27E-01 at (  29,  20,  20)
       Mesh    3
       Max CFL number:  0.82E+00 at (  41,  13,   1)
       Max divergence:  0.38E+01 at (  41,  15,   1)
       Min divergence: -0.33E+01 at (  42,  15,   1)
       Max div. error:  0.10E-06 at (  80,   2,  20)
       Max VN number:   0.20E+00 at (  43,  15,   1)
       Total Heat Release Rate:            440.838 kW
       Radiation Loss to Boundaries:      -315.553 kW
       Mesh    4
       Max CFL number:  0.47E-01 at (  70,   7,   5)
       Max divergence:  0.12E-05 at (  72,  17,   7)
       Min divergence: -0.12E-05 at (  55,  18,  11)
       Max div. error:  0.10E-06 at (  80,   2,  20)
       Max VN number:   0.91E-02 at (  27,  20,  20)
       Mesh    5
       Max CFL number:  0.47E-01 at (  21,   7,   8)
       Max divergence:  0.13E-05 at (  77,  10,  15)
       Min divergence: -0.13E-05 at (  66,  16,   4)
       Max div. error:  0.10E-06 at (  80,   2,  20)
       Max VN number:   0.90E-02 at (  32,  20,   1)
       Mesh    6
       Max CFL number:  0.46E-01 at (  38,   4,  16)
       Max divergence:  0.13E-05 at (  55,   2,   3)
       Min divergence: -0.12E-05 at (  78,  15,  10)
       Max div. error:  0.10E-06 at (  80,   2,  20)
       Max VN number:   0.90E-02 at (  72,   1,  20)
       Mesh    7
       Max CFL number:  0.47E-01 at (  57,   7,   3)
       Max divergence:  0.12E-05 at (  47,  10,  11)
       Min divergence: -0.12E-05 at (  28,  12,  12)
       Max div. error:  0.10E-06 at (  80,   2,  20)
       Max VN number:   0.89E-02 at (  32,  20,  20)
       Mesh    8
       Max CFL number:  0.47E-01 at (  51,   8,  12)
       Max divergence:  0.11E-05 at (  68,  17,   7)
       Min divergence: -0.12E-05 at (  17,  19,  16)
       Max div. error:  0.96E-07 at (   1,   2,  20)
       Max VN number:   0.93E-02 at (  58,  20,  20)
 
       Time Step       8   June 26, 2020  16:25:10
       Step Size:    0.699E-01 s, Total Time:       0.84 s
       Pressure Iterations:      6
       Maximum Velocity Error:  0.10E-16 on Mesh   2 at (  81  17  20)
       Maximum Pressure Error:  0.28E+03 on Mesh   3 at (  43  15   1)
       ScaRC: iterations   100, residual  0.92E-01, convergence rate   0.91E+00
       ---------------------------------------------------------------
       Mesh    1
       Max CFL number:  0.65E-02 at (  10,  18,  10)
       Max divergence:  0.70E-05 at (  12,   1,   1)
       Min divergence: -0.56E-04 at (  15,   2,  19)
       Max div. error:  0.74E-04 at (  15,   2,  20)
       Max VN number:   0.48E-02 at (  62,   6,  15)
       Radiation Loss to Boundaries:         0.089 kW
       Mesh    2
       Max CFL number:  0.66E-02 at (  57,  10,   4)
       Max divergence:  0.17E-05 at (   1,   1,   1)
       Min divergence: -0.28E-04 at (   1,   2,   2)
       Max div. error:  0.45E-04 at (   1,   2,   2)
       Max VN number:   0.50E-02 at (  70,  13,  14)
       Mesh    3
       Max CFL number:  0.87E+00 at (  41,  15,   1)
       Max divergence:  0.72E+01 at (  42,  15,   1)
       Min divergence: -0.10E+01 at (  50,   6,   2)
       Max div. error:  0.11E-06 at (  80,   2,  20)
       Max VN number:   0.13E+00 at (  40,  15,   1)
       Total Heat Release Rate:            818.247 kW
       Radiation Loss to Boundaries:      -230.422 kW
       Mesh    4
       Max CFL number:  0.13E-01 at (  70,   7,   5)
       Max divergence:  0.12E-05 at (  72,  17,   7)
       Min divergence: -0.12E-05 at (  55,  18,  11)
       Max div. error:  0.11E-06 at (  80,   2,  20)
       Max VN number:   0.48E-02 at (  58,  17,   8)
       Mesh    5
       Max CFL number:  0.14E-01 at (  21,   7,   8)
       Max divergence:  0.13E-05 at (  59,  15,  11)
       Min divergence: -0.13E-05 at (  66,  16,   4)
       Max div. error:  0.11E-06 at (  80,   2,  20)
       Max VN number:   0.50E-02 at (  17,   9,  12)
       Mesh    6
       Max CFL number:  0.13E-01 at (  57,  17,  11)
       Max divergence:  0.13E-05 at (  55,   6,  10)
       Min divergence: -0.12E-05 at (  78,  15,  10)
       Max div. error:  0.11E-06 at (  80,   2,  20)
       Max VN number:   0.48E-02 at (  78,  15,   2)
       Mesh    7
       Max CFL number:  0.14E-01 at (  57,   7,   3)
       Max divergence:  0.12E-05 at (  47,  10,  11)
       Min divergence: -0.12E-05 at (  28,  12,  12)
       Max div. error:  0.11E-06 at (  80,   2,  20)
       Max VN number:   0.48E-02 at (  42,  15,  14)
       Mesh    8
       Max CFL number:  0.13E-01 at (  51,   8,  12)
       Max divergence:  0.11E-05 at (  68,  17,   7)
       Min divergence: -0.12E-05 at (  17,  19,  16)
       Max div. error:  0.11E-06 at (   1,   2,  20)
       Max VN number:   0.49E-02 at (  29,  17,  17)
 
       Time Step       9   June 26, 2020  16:26:07
       Step Size:    0.699E-01 s, Total Time:       0.91 s
       Pressure Iterations:      8
       Maximum Velocity Error:  0.57E-17 on Mesh   2 at (  81   2   9)
       Maximum Pressure Error:  0.34E+03 on Mesh   3 at (  50  15   1)
       ScaRC: iterations   100, residual  0.49E-01, convergence rate   0.90E+00
       ---------------------------------------------------------------
       Mesh    1
       Max CFL number:  0.67E-02 at (  10,  18,  10)
       Max divergence:  0.80E-04 at (   1,  20,  20)
       Min divergence: -0.45E-04 at (   1,   1,   1)
       Max div. error:  0.40E-04 at (  15,   2,  20)
       Max VN number:   0.48E-02 at (  62,   6,  15)
       Radiation Loss to Boundaries:         0.089 kW
       Mesh    2
       Max CFL number:  0.66E-02 at (  57,  10,   4)
       Max divergence:  0.41E-04 at (   1,   2,   2)
       Min divergence: -0.21E-04 at (   1,   1,   1)
       Max div. error:  0.24E-04 at (   1,   2,   2)
       Max VN number:   0.50E-02 at (  70,  13,  14)
       Mesh    3
       Max CFL number:  0.88E+00 at (  42,  15,   1)
       Max divergence:  0.95E+01 at (  49,  15,   1)
       Min divergence: -0.21E+01 at (  50,  15,   2)
       Max div. error:  0.61E-07 at (  80,   2,  20)
       Max VN number:   0.27E+00 at (  42,  15,   1)
       Total Heat Release Rate:            867.390 kW
       Radiation Loss to Boundaries:      -372.275 kW
       Mesh    4
       Max CFL number:  0.38E-01 at (  70,   7,   5)
       Max divergence:  0.12E-05 at (  72,  17,   7)
       Min divergence: -0.12E-05 at (  55,  18,  11)
       Max div. error:  0.61E-07 at (  80,   2,  20)
       Max VN number:   0.92E-02 at (   9,   1,   1)
       Mesh    5
       Max CFL number:  0.39E-01 at (  21,   7,   8)
       Max divergence:  0.13E-05 at (  59,  15,  11)
       Min divergence: -0.13E-05 at (  66,  16,   4)
       Max div. error:  0.61E-07 at (  80,   2,  20)
       Max VN number:   0.90E-02 at (  34,   1,  20)
       Mesh    6
       Max CFL number:  0.38E-01 at (  57,  17,  11)
       Max divergence:  0.13E-05 at (  55,   2,   3)
       Min divergence: -0.12E-05 at (  78,  15,  10)
       Max div. error:  0.61E-07 at (  80,   2,  20)
       Max VN number:   0.92E-02 at (  11,  20,  20)
       Mesh    7
       Max CFL number:  0.39E-01 at (  57,   7,   3)
       Max divergence:  0.12E-05 at (  47,  10,  11)
       Min divergence: -0.13E-05 at (  28,  12,  12)
       Max div. error:  0.61E-07 at (  80,   2,  20)
       Max VN number:   0.90E-02 at (  41,  20,   1)
       Mesh    8
       Max CFL number:  0.38E-01 at (  51,   8,  12)
       Max divergence:  0.11E-05 at (  68,  17,   7)
       Min divergence: -0.12E-05 at (  17,  19,  16)
       Max div. error:  0.58E-07 at (   1,   2,  20)
       Max VN number:   0.91E-02 at (  37,   1,   1)
 
       Time Step      10   June 26, 2020  16:27:09
       Step Size:    0.699E-01 s, Total Time:       0.98 s
       Pressure Iterations:     10
       Maximum Velocity Error:  0.20E-16 on Mesh   2 at (  81   1   9)
       Maximum Pressure Error:  0.27E+03 on Mesh   3 at (  49  15   1)
       ScaRC: iterations   100, residual  0.11E-01, convergence rate   0.90E+00
       ---------------------------------------------------------------
       Mesh    1
       Max CFL number:  0.69E-02 at (  10,  18,  10)
       Max divergence:  0.43E-04 at (   1,  20,  20)
       Min divergence: -0.24E-04 at (   1,   1,   1)
       Max div. error:  0.86E-05 at (  15,   2,  20)
       Max VN number:   0.48E-02 at (  62,   6,  15)
       Radiation Loss to Boundaries:         0.085 kW
       Mesh    2
       Max CFL number:  0.66E-02 at (  57,  10,   4)
       Max divergence:  0.12E-04 at (   1,   2,   2)
       Min divergence: -0.11E-04 at (   1,   1,   1)
       Max div. error:  0.51E-05 at (   1,   2,   2)
       Max VN number:   0.50E-02 at (  70,  13,  14)
       Mesh    3
       Max CFL number:  0.94E+00 at (  41,  14,   1)
       Max divergence:  0.98E+01 at (  50,  15,   1)
       Min divergence: -0.24E+01 at (  49,  15,   2)
       Max div. error:  0.13E-07 at (  80,   2,  20)
       Max VN number:   0.39E+00 at (  49,  15,   1)
       Total Heat Release Rate:           1297.222 kW
       Radiation Loss to Boundaries:      -302.284 kW
       Mesh    4
       Max CFL number:  0.35E-01 at (  70,   7,   5)
       Max divergence:  0.12E-05 at (  72,  17,   7)
       Min divergence: -0.12E-05 at (  55,  18,  11)
       Max div. error:  0.13E-07 at (  80,   2,  20)
       Max VN number:   0.76E-02 at (   9,   1,   1)
       Mesh    5
       Max CFL number:  0.35E-01 at (  21,   7,   8)
       Max divergence:  0.13E-05 at (  59,  15,  11)
       Min divergence: -0.13E-05 at (  66,  16,   4)
       Max div. error:  0.13E-07 at (  80,   2,  20)
       Max VN number:   0.74E-02 at (  34,   1,  20)
       Mesh    6
       Max CFL number:  0.35E-01 at (  57,  17,  11)
       Max divergence:  0.13E-05 at (  55,   2,   3)
       Min divergence: -0.12E-05 at (  78,  15,  10)
       Max div. error:  0.13E-07 at (  80,   2,  20)
       Max VN number:   0.76E-02 at (  11,  20,  20)
       Mesh    7
       Max CFL number:  0.35E-01 at (  57,   7,   3)
       Max divergence:  0.12E-05 at (  47,  10,  11)
       Min divergence: -0.13E-05 at (  28,  12,  12)
       Max div. error:  0.13E-07 at (  80,   2,  20)
       Max VN number:   0.74E-02 at (  41,  20,   1)
       Mesh    8
       Max CFL number:  0.35E-01 at (  51,   8,  12)
       Max divergence:  0.12E-05 at (  68,  17,   7)
       Min divergence: -0.12E-05 at (  17,  19,  16)
       Max div. error:  0.12E-07 at (   1,   2,  20)
       Max VN number:   0.75E-02 at (  37,   1,   1)
 
       Time Step      20   June 26, 2020  16:37:28
       Step Size:    0.335E-01 s, Total Time:       1.40 s
       Pressure Iterations:      8
       Maximum Velocity Error:  0.18E-16 on Mesh   2 at (  81   1   9)
       Maximum Pressure Error:  0.33E+03 on Mesh   3 at (  49  14   1)
       ScaRC: iterations   100, residual  0.57E-02, convergence rate   0.89E+00
       ---------------------------------------------------------------
       Mesh    1
       Max CFL number:  0.40E-02 at (  18,   2,  13)
       Max divergence:  0.46E-04 at (   1,  20,  20)
       Min divergence: -0.26E-04 at (   1,   1,   1)
       Max div. error:  0.22E-05 at (  15,   2,  20)
       Max VN number:   0.26E-02 at (  13,   2,  14)
       Radiation Loss to Boundaries:         0.072 kW
       Mesh    2
       Max CFL number:  0.31E-02 at (  57,  10,   4)
       Max divergence:  0.49E-04 at (  80,  18,  20)
       Min divergence: -0.12E-04 at (   1,   1,   1)
       Max div. error:  0.13E-05 at (   1,   2,   2)
       Max VN number:   0.24E-02 at (  70,  13,  14)
       Radiation Loss to Boundaries:         0.027 kW
       Mesh    3
       Max CFL number:  0.96E+00 at (  42,  12,   1)
       Max divergence:  0.19E+02 at (  48,  14,   1)
       Min divergence: -0.29E+01 at (  44,  13,   2)
       Max VN number:   0.40E+00 at (  49,  14,   1)
       Total Heat Release Rate:           3097.456 kW
       Radiation Loss to Boundaries:      -939.097 kW
       Mesh    4
       Max CFL number:  0.55E-01 at (  79,  18,  17)
       Max divergence:  0.14E-03 at (   1,  20,   7)
       Min divergence: -0.11E-05 at (  54,   4,  19)
       Max VN number:   0.20E-01 at (   9,   1,   1)
       Radiation Loss to Boundaries:         0.057 kW
       Mesh    5
       Max CFL number:  0.55E-01 at (  53,   7,   9)
       Max divergence:  0.13E-05 at (  59,  15,  11)
       Min divergence: -0.13E-05 at (   3,   8,  11)
       Max VN number:   0.20E-01 at (  13,  20,   1)
       Mesh    6
       Max CFL number:  0.55E-01 at (  59,  19,  15)
       Max divergence:  0.12E-05 at (  55,   6,  10)
       Min divergence: -0.12E-05 at (  27,   2,   9)
       Max VN number:   0.20E-01 at (  11,  20,  20)
       Mesh    7
       Max CFL number:  0.56E-01 at (  57,   7,   3)
       Max divergence:  0.11E-05 at (   7,   3,  16)
       Min divergence: -0.13E-05 at (  28,  12,  12)
       Max VN number:   0.20E-01 at (  53,   1,   1)
       Mesh    8
       Max CFL number:  0.55E-01 at (  54,   2,  11)
       Max divergence:  0.13E-05 at (  17,  18,  18)
       Min divergence: -0.13E-05 at (  14,   2,  17)
       Max VN number:   0.20E-01 at (  37,   1,   1)
 
       Time Step      30   June 26, 2020  16:48:05
       Step Size:    0.292E-01 s, Total Time:       1.72 s
       Pressure Iterations:      7
       Maximum Velocity Error:  0.14E-16 on Mesh   2 at (  81   2  10)
       Maximum Pressure Error:  0.49E+03 on Mesh   3 at (  43   8   1)
       ScaRC: iterations   100, residual  0.44E-01, convergence rate   0.89E+00
       ---------------------------------------------------------------
       Mesh    1
       Max CFL number:  0.42E-02 at (  18,   2,  13)
       Max divergence:  0.36E-04 at (   1,  20,  20)
       Min divergence: -0.22E-04 at (  12,   3,  16)
       Max div. error:  0.15E-04 at (  15,   2,  20)
       Max VN number:   0.25E-02 at (  13,   2,  14)
       Radiation Loss to Boundaries:         0.071 kW
       Mesh    2
       Max CFL number:  0.27E-02 at (  77,  13,  15)
       Max divergence:  0.13E-03 at (  80,   2,   9)
       Min divergence: -0.97E-05 at (   1,   1,   1)
       Max div. error:  0.89E-05 at (   1,   2,   2)
       Max VN number:   0.21E-02 at (  70,  13,  14)
       Radiation Loss to Boundaries:         0.980 kW
       Mesh    3
       Max CFL number:  0.90E+00 at (  49,  14,   4)
       Max divergence:  0.11E+02 at (  43,  14,   1)
       Min divergence: -0.25E+01 at (  43,  13,   1)
       Max div. error:  0.23E-07 at (  80,   2,  20)
       Max VN number:   0.29E+00 at (  48,   8,   1)
       Total Heat Release Rate:           5061.929 kW
       Radiation Loss to Boundaries:     -1456.601 kW
       Mesh    4
       Max CFL number:  0.85E-01 at (  74,  12,  14)
       Max divergence:  0.22E-03 at (   1,  20,   8)
       Min divergence: -0.11E-05 at (  74,  15,   7)
       Max div. error:  0.23E-07 at (  80,   2,  20)
       Max VN number:   0.32E-01 at (  26,  20,  20)
       Radiation Loss to Boundaries:         1.452 kW
       Mesh    5
       Max CFL number:  0.85E-01 at (   9,  16,  19)
       Max divergence:  0.13E-05 at (  18,  15,  16)
       Min divergence: -0.12E-05 at (   7,   4,  16)
       Max div. error:  0.23E-07 at (  80,   2,  20)
       Max VN number:   0.32E-01 at (   8,  20,  20)
       Mesh    6
       Max CFL number:  0.86E-01 at (  13,   6,   7)
       Max divergence:  0.13E-05 at (  40,  13,  17)
       Min divergence: -0.14E-05 at (  27,   2,   9)
       Max div. error:  0.23E-07 at (  80,   2,  20)
       Max VN number:   0.32E-01 at (  12,  20,  20)
       Mesh    7
       Max CFL number:  0.85E-01 at (  57,   7,   3)
       Max divergence:  0.14E-05 at (  14,  15,   6)
       Min divergence: -0.12E-05 at (  78,   4,  10)
       Max div. error:  0.23E-07 at (  80,   2,  20)
       Max VN number:   0.32E-01 at (  22,   1,  20)
       Mesh    8
       Max CFL number:  0.85E-01 at (  54,   2,  11)
       Max divergence:  0.13E-05 at (  17,  18,  18)
       Min divergence: -0.12E-05 at (  14,   2,  17)
       Max div. error:  0.21E-07 at (   1,   2,  20)
       Max VN number:   0.32E-01 at (  57,  20,   1)
 
       Time Step      40   June 26, 2020  16:59:44
       Step Size:    0.218E-01 s, Total Time:       1.97 s
       Pressure Iterations:     10
       Maximum Velocity Error:  0.22E-15 on Mesh   3 at (  81  18   1)
       Maximum Pressure Error:  0.25E+03 on Mesh   3 at (  43  12   1)
       ScaRC: iterations   100, residual  0.16E-01, convergence rate   0.89E+00
       ---------------------------------------------------------------
       Mesh    1
       Max CFL number:  0.35E-02 at (  18,   2,  13)
       Max divergence:  0.44E-04 at (   1,  20,  20)
       Min divergence: -0.24E-04 at (   1,   1,   1)
       Max div. error:  0.39E-05 at (  15,   2,  20)
       Max VN number:   0.21E-02 at (  13,   2,  14)
       Radiation Loss to Boundaries:         0.072 kW
       Mesh    2
       Max CFL number:  0.21E-02 at (   1,   2,   3)
       Max divergence:  0.27E-03 at (  80,  18,  11)
       Min divergence: -0.12E-04 at (   1,   1,   1)
       Max div. error:  0.24E-05 at (   1,   2,   2)
       Max VN number:   0.15E-02 at (  70,  13,  14)
       Radiation Loss to Boundaries:         2.142 kW
       Mesh    3
       Max CFL number:  0.83E+00 at (  52,  13,   7)
       Max divergence:  0.12E+02 at (  42,   6,   1)
       Min divergence: -0.40E+01 at (  46,  10,   3)
       Max VN number:   0.28E+00 at (  49,   7,   1)
       Total Heat Release Rate:           7011.458 kW
       Radiation Loss to Boundaries:     -1726.487 kW
       Mesh    4
       Max CFL number:  0.91E-01 at (   6,   5,  13)
       Max divergence:  0.47E-03 at (   1,  10,   9)
       Min divergence: -0.95E-06 at (  74,  15,   8)
       Max VN number:   0.34E-01 at (   3,   1,  20)
       Radiation Loss to Boundaries:         3.758 kW
       Mesh    5
       Max CFL number:  0.91E-01 at (  68,   8,   9)
       Max divergence:  0.38E-05 at (   2,   1,  19)
       Min divergence: -0.13E-05 at (  20,   3,  13)
       Max VN number:   0.34E-01 at (  14,  20,   1)
       Radiation Loss to Boundaries:         0.003 kW
       Mesh    6
       Max CFL number:  0.91E-01 at (  14,   6,   7)
       Max divergence:  0.13E-05 at (  40,  13,  17)
       Min divergence: -0.13E-05 at (  47,  11,  13)
       Max VN number:   0.34E-01 at (  12,  20,  20)
       Mesh    7
       Max CFL number:  0.91E-01 at (  15,   5,  16)
       Max divergence:  0.14E-05 at (  14,  15,   6)
       Min divergence: -0.12E-05 at (  42,  14,  18)
       Max VN number:   0.34E-01 at (  31,  20,  20)
       Mesh    8
       Max CFL number:  0.91E-01 at (   5,   3,  11)
       Max divergence:  0.12E-05 at (  20,   8,  18)
       Min divergence: -0.13E-05 at (   3,  20,   2)
       Max VN number:   0.34E-01 at (  25,  20,   1)
 
       Time Step      50   June 26, 2020  17:11:53
       Step Size:    0.198E-01 s, Total Time:       2.18 s
       Pressure Iterations:      9
       Maximum Velocity Error:  0.66E-17 on Mesh   2 at (  81   3  11)
       Maximum Pressure Error:  0.45E+03 on Mesh   3 at (  42   7   1)
       ScaRC: iterations   100, residual  0.38E-01, convergence rate   0.89E+00
       ---------------------------------------------------------------
       Mesh    1
       Max CFL number:  0.35E-02 at (  18,   2,  13)
       Max divergence:  0.53E-04 at (   1,  20,  20)
       Min divergence: -0.29E-04 at (   1,   1,   1)
       Max div. error:  0.88E-05 at (  15,   2,  20)
       Max VN number:   0.20E-02 at (  13,   2,  14)
       Radiation Loss to Boundaries:         0.072 kW
       Mesh    2
       Max CFL number:  0.21E-02 at (   1,   2,   3)
       Max divergence:  0.28E-03 at (  80,  19,  11)
       Min divergence: -0.15E-04 at (   1,   1,   1)
       Max div. error:  0.52E-05 at (   1,   2,   2)
       Max VN number:   0.14E-02 at (  70,  13,  14)
       Radiation Loss to Boundaries:         2.194 kW
       Mesh    3
       Max CFL number:  0.91E+00 at (  54,  12,   8)
       Max divergence:  0.12E+02 at (  51,  11,   3)
       Min divergence: -0.43E+01 at (  48,  10,   4)
       Max div. error:  0.13E-07 at (  80,   2,  20)
       Max VN number:   0.25E+00 at (  47,   9,   1)
       Total Heat Release Rate:           8804.521 kW
       Radiation Loss to Boundaries:     -2115.558 kW
       Mesh    4
       Max CFL number:  0.11E+00 at (   1,  16,  19)
       Max divergence:  0.50E-03 at (   1,  19,  10)
       Min divergence: -0.94E-06 at (  80,   8,   7)
       Max div. error:  0.13E-07 at (  80,   2,  20)
       Max VN number:   0.42E-01 at (   1,   1,  20)
       Radiation Loss to Boundaries:         4.182 kW
       Mesh    5
       Max CFL number:  0.11E+00 at (  36,   5,   9)
       Max divergence:  0.36E-05 at (   2,   1,  20)
       Min divergence: -0.13E-05 at (  17,  15,  16)
       Max div. error:  0.13E-07 at (  80,   2,  20)
       Max VN number:   0.41E-01 at (  32,   1,  20)
       Radiation Loss to Boundaries:         0.003 kW
       Mesh    6
       Max CFL number:  0.11E+00 at (  72,  14,  10)
       Max divergence:  0.13E-05 at (  53,   2,   3)
       Min divergence: -0.14E-05 at (  11,   7,  12)
       Max div. error:  0.13E-07 at (  80,   2,  20)
       Max VN number:   0.41E-01 at (  15,  20,  20)
       Mesh    7
       Max CFL number:  0.11E+00 at (  15,   5,  16)
       Max divergence:  0.14E-05 at (  44,  10,   8)
       Min divergence: -0.13E-05 at (  65,  14,   5)
       Max div. error:  0.13E-07 at (  80,   2,  20)
       Max VN number:   0.41E-01 at (  23,   1,  20)
       Mesh    8
       Max CFL number:  0.11E+00 at (  25,  10,   9)
       Max divergence:  0.13E-05 at (  54,  19,   9)
       Min divergence: -0.14E-05 at (   3,  20,   2)
       Max div. error:  0.13E-07 at (   1,   2,  20)
       Max VN number:   0.41E-01 at (  58,  20,   1)
 
       Time Step      60   June 26, 2020  17:23:13
       Step Size:    0.150E-01 s, Total Time:       2.36 s
       Pressure Iterations:      8
       Maximum Velocity Error:  0.50E-17 on Mesh   2 at (  81   3  11)
       Maximum Pressure Error:  0.34E+03 on Mesh   3 at (  42  15   1)
       ScaRC: iterations   100, residual  0.25E-01, convergence rate   0.89E+00
       ---------------------------------------------------------------
       Mesh    1
       Max CFL number:  0.28E-02 at (  18,   2,  13)
       Max divergence:  0.49E-04 at (   1,  20,  20)
       Min divergence: -0.27E-04 at (   1,   1,   1)
       Max div. error:  0.43E-05 at (  15,   2,  20)
       Max VN number:   0.16E-02 at (  13,   2,  14)
       Radiation Loss to Boundaries:         0.073 kW
       Mesh    2
       Max CFL number:  0.17E-02 at (   1,   2,   3)
       Max divergence:  0.39E-03 at (  80,  18,  14)
       Min divergence: -0.14E-04 at (   1,   1,   1)
       Max div. error:  0.26E-05 at (   1,   2,   2)
       Max VN number:   0.10E-02 at (  70,  13,  14)
       Radiation Loss to Boundaries:         3.161 kW
       Mesh    3
       Max CFL number:  0.88E+00 at (  50,  12,   5)
       Max divergence:  0.15E+02 at (  50,  14,   1)
       Min divergence: -0.33E+01 at (  43,   9,   1)
       Max VN number:   0.21E+00 at (  50,   8,   9)
       Total Heat Release Rate:          10195.171 kW
       Radiation Loss to Boundaries:     -2785.338 kW
       Mesh    4
       Max CFL number:  0.94E-01 at (   1,  16,  19)
       Max divergence:  0.90E-03 at (   1,  10,  11)
       Min divergence: -0.86E-06 at (  80,  16,   8)
       Max VN number:   0.35E-01 at (   1,   1,  20)
       Radiation Loss to Boundaries:         9.357 kW
       Mesh    5
       Max CFL number:  0.92E-01 at (   9,  12,   9)
       Max divergence:  0.75E-05 at (   1,   1,  20)
       Min divergence: -0.13E-05 at (  21,   3,  13)
       Max VN number:   0.34E-01 at (  37,   1,  20)
       Radiation Loss to Boundaries:         0.006 kW
       Mesh    6
       Max CFL number:  0.93E-01 at (  10,   9,  12)
       Max divergence:  0.12E-05 at (  71,   7,   6)
       Min divergence: -0.13E-05 at (  34,   5,   3)
       Max VN number:   0.34E-01 at (  15,  20,  20)
       Mesh    7
       Max CFL number:  0.92E-01 at (  36,  16,  18)
       Max divergence:  0.14E-05 at (   9,   4,   7)
       Min divergence: -0.12E-05 at (  47,   3,  17)
       Max VN number:   0.34E-01 at (  32,  20,  20)
       Mesh    8
       Max CFL number:  0.92E-01 at (  25,   9,   2)
       Max divergence:  0.13E-05 at (  19,   6,  17)
       Min divergence: -0.12E-05 at (   3,  11,  10)
       Max VN number:   0.34E-01 at (  65,  20,   1)
 
       Time Step      70   June 26, 2020  17:37:01
       Step Size:    0.121E-01 s, Total Time:       2.48 s
       Pressure Iterations:     10
       Maximum Velocity Error:  0.30E-16 on Mesh   2 at (  81   3  12)
       Maximum Pressure Error:  0.67E+03 on Mesh   3 at (  43  12   1)
       ScaRC: iterations   100, residual  0.43E-01, convergence rate   0.89E+00
       ---------------------------------------------------------------
       Mesh    1
       Max CFL number:  0.24E-02 at (  18,   2,  13)
       Max divergence:  0.41E-04 at (   1,  20,  20)
       Min divergence: -0.23E-04 at (   1,   1,   1)
       Max div. error:  0.60E-05 at (  15,   2,  20)
       Max VN number:   0.13E-02 at (  13,   2,  14)
       Radiation Loss to Boundaries:         0.073 kW
       Mesh    2
       Max CFL number:  0.14E-02 at (   1,   2,   3)
       Max divergence:  0.42E-03 at (  80,  18,  17)
       Min divergence: -0.12E-04 at (   1,   1,   1)
       Max div. error:  0.36E-05 at (   1,   2,   2)
       Max VN number:   0.84E-03 at (  70,  13,  14)
       Radiation Loss to Boundaries:         3.521 kW
       Mesh    3
       Max CFL number:  0.98E+00 at (  51,   9,   8)
       Max divergence:  0.13E+02 at (  41,  14,   1)
       Min divergence: -0.25E+01 at (  52,   8,  10)
       Max VN number:   0.21E+00 at (  50,  12,   9)
       Total Heat Release Rate:           9864.251 kW
       Radiation Loss to Boundaries:     -2453.782 kW
       Mesh    4
       Max CFL number:  0.77E-01 at (   1,   7,  17)
       Max divergence:  0.16E-02 at (   1,   9,  12)
       Min divergence: -0.61E-06 at (  80,  16,   8)
       Max VN number:   0.29E-01 at (   1,   1,  20)
       Radiation Loss to Boundaries:        18.408 kW
       Mesh    5
       Max CFL number:  0.75E-01 at (  65,  18,  17)
       Max divergence:  0.11E-04 at (   1,   1,  20)
       Min divergence: -0.12E-05 at (  52,   3,   7)
       Max VN number:   0.28E-01 at (  16,  20,   1)
       Radiation Loss to Boundaries:         0.010 kW
       Mesh    6
       Max CFL number:  0.75E-01 at (  10,   9,  12)
       Max divergence:  0.13E-05 at (   5,  14,   7)
       Min divergence: -0.13E-05 at (  21,   3,  17)
       Max VN number:   0.28E-01 at (  15,  20,  20)
       Mesh    7
       Max CFL number:  0.75E-01 at (  37,   4,  16)
       Max divergence:  0.13E-05 at (   9,   4,   7)
       Min divergence: -0.12E-05 at (  71,   8,   5)
       Max VN number:   0.28E-01 at (  39,  20,  20)
       Mesh    8
       Max CFL number:  0.75E-01 at (  10,  16,  18)
       Max divergence:  0.12E-05 at (  26,   6,  11)
       Min divergence: -0.14E-05 at (  69,   6,  13)
       Max VN number:   0.28E-01 at (  52,   1,   1)
 
       Time Step      80   June 26, 2020  17:48:45
       Step Size:    0.121E-01 s, Total Time:       2.60 s
       Pressure Iterations:      4
       Maximum Velocity Error:  0.22E-15 on Mesh   3 at (  81   7   3)
       Maximum Pressure Error:  0.21E+05 on Mesh   3 at (  48   7   1)
       ScaRC: iterations   100, residual  0.53E+01, convergence rate   0.90E+00
       ---------------------------------------------------------------
       Mesh    1
       Max CFL number:  0.25E-02 at (  18,   2,  13)
       Max divergence:  0.29E-03 at (   1,   1,   1)
       Min divergence: -0.71E-03 at (  15,   2,  20)
       Max div. error:  0.75E-03 at (  15,   2,  20)
       Max VN number:   0.14E-02 at (  13,   2,  14)
       Radiation Loss to Boundaries:         0.073 kW
       Mesh    2
       Max CFL number:  0.15E-02 at (   1,   2,   3)
       Max divergence:  0.42E-03 at (  80,  18,  17)
       Min divergence: -0.43E-03 at (   1,   2,   2)
       Max div. error:  0.45E-03 at (   1,   2,   2)
       Max VN number:   0.83E-03 at (  70,  13,  14)
       Radiation Loss to Boundaries:         3.563 kW
       Mesh    3
       Max CFL number:  0.96E+00 at (  50,   9,  10)
       Max divergence:  0.41E+02 at (  52,   9,   1)
       Min divergence: -0.35E+01 at (  49,  11,   4)
       Max div. error:  0.11E-05 at (  80,   2,  20)
       Max VN number:   0.22E+00 at (  50,   9,  10)
       Total Heat Release Rate:           8208.635 kW
       Radiation Loss to Boundaries:     -1979.686 kW
       Mesh    4
       Max CFL number:  0.70E-01 at (   1,  12,  19)
       Max divergence:  0.18E-02 at (   1,   6,  13)
       Min divergence: -0.48E-06 at (  78,   3,   7)
       Max div. error:  0.11E-05 at (  80,   2,  20)
       Max VN number:   0.26E-01 at (   1,   1,  20)
       Radiation Loss to Boundaries:        20.434 kW
       Mesh    5
       Max CFL number:  0.66E-01 at (  52,   3,   8)
       Max divergence:  0.11E-04 at (   1,   1,  20)
       Min divergence: -0.14E-05 at (  22,   2,   4)
       Max div. error:  0.11E-05 at (  80,   2,  20)
       Max VN number:   0.24E-01 at (  74,   1,  20)
       Radiation Loss to Boundaries:         0.010 kW
       Mesh    6
       Max CFL number:  0.66E-01 at (  80,   4,  12)
       Max divergence:  0.14E-05 at (   5,  14,   7)
       Min divergence: -0.14E-05 at (  59,   2,   5)
       Max div. error:  0.11E-05 at (  80,   2,  20)
       Max VN number:   0.24E-01 at (  16,  20,  20)
       Mesh    7
       Max CFL number:  0.66E-01 at (   1,   4,  12)
       Max divergence:  0.14E-05 at (   9,  19,  10)
       Min divergence: -0.12E-05 at (   9,  13,  18)
       Max div. error:  0.11E-05 at (  80,   2,  20)
       Max VN number:   0.24E-01 at (  40,  20,  20)
       Mesh    8
       Max CFL number:  0.66E-01 at (  44,   9,   3)
       Max divergence:  0.12E-05 at (  53,   5,  13)
       Min divergence: -0.14E-05 at (  69,   6,  13)
       Max div. error:  0.11E-05 at (   1,   2,  20)
       Max VN number:   0.24E-01 at (  52,   1,   1)
 
       Time Step      90   June 26, 2020  18:00:37
       Step Size:    0.133E-01 s, Total Time:       2.73 s
       Pressure Iterations:      5
       Maximum Velocity Error:  0.11E-15 on Mesh   3 at (  81   4   1)
       Maximum Pressure Error:  0.15E+04 on Mesh   3 at (  42  15   1)
       ScaRC: iterations   100, residual  0.36E+00, convergence rate   0.90E+00
       ---------------------------------------------------------------
       Mesh    1
       Max CFL number:  0.29E-02 at (  18,   2,  13)
       Max divergence:  0.47E-05 at (  14,   1,   1)
       Min divergence: -0.49E-04 at (  16,   3,  15)
       Max div. error:  0.56E-04 at (  15,   2,  20)
       Max VN number:   0.16E-02 at (  13,   2,  14)
       Radiation Loss to Boundaries:         0.073 kW
       Mesh    2
       Max CFL number:  0.17E-02 at (   1,   2,   3)
       Max divergence:  0.45E-03 at (  80,  18,  20)
       Min divergence: -0.18E-04 at (   1,   3,   3)
       Max div. error:  0.34E-04 at (   1,   2,   2)
       Max VN number:   0.92E-03 at (  70,  13,  14)
       Radiation Loss to Boundaries:         3.636 kW
       Mesh    3
       Max CFL number:  0.88E+00 at (  51,   8,  12)
       Max divergence:  0.13E+02 at (  54,  11,   3)
       Min divergence: -0.40E+01 at (  47,  14,   1)
       Max div. error:  0.85E-07 at (  80,   2,  20)
       Max VN number:   0.19E+00 at (  51,   8,  12)
       Total Heat Release Rate:           6977.999 kW
       Radiation Loss to Boundaries:     -1598.181 kW
       Mesh    4
       Max CFL number:  0.72E-01 at (   1,  10,  19)
       Max divergence:  0.21E-02 at (   1,  10,   5)
       Min divergence: -0.20E-06 at (  77,  15,  11)
       Max div. error:  0.85E-07 at (  80,   2,  20)
       Max VN number:   0.26E-01 at (   1,   1,  20)
       Radiation Loss to Boundaries:        26.369 kW
       Mesh    5
       Max CFL number:  0.65E-01 at (  29,   7,  17)
       Max divergence:  0.16E-04 at (   1,   1,  20)
       Min divergence: -0.12E-05 at (  22,   3,  13)
       Max div. error:  0.85E-07 at (  80,   2,  20)
       Max VN number:   0.24E-01 at (  34,   1,  20)
       Radiation Loss to Boundaries:         0.015 kW
       Mesh    6
       Max CFL number:  0.65E-01 at (  27,  11,  17)
       Max divergence:  0.12E-05 at (  70,  11,   4)
       Min divergence: -0.13E-05 at (  14,   7,   7)
       Max div. error:  0.85E-07 at (  80,   2,  20)
       Max VN number:   0.24E-01 at (  16,  20,  20)
       Mesh    7
       Max CFL number:  0.65E-01 at (  25,   3,  17)
       Max divergence:  0.12E-05 at (  10,  10,  11)
       Min divergence: -0.13E-05 at (   8,   4,   7)
       Max div. error:  0.85E-07 at (  80,   2,  20)
       Max VN number:   0.24E-01 at (  40,  20,  20)
       Mesh    8
       Max CFL number:  0.65E-01 at (  44,  10,   8)
       Max divergence:  0.13E-05 at (  17,   6,  17)
       Min divergence: -0.13E-05 at (  52,   5,   6)
       Max div. error:  0.80E-07 at (   1,   2,  20)
       Max VN number:   0.24E-01 at (  52,   1,   1)
 
       Time Step     100   June 26, 2020  18:11:15
       Step Size:    0.133E-01 s, Total Time:       2.86 s
       Pressure Iterations:      9
       Maximum Velocity Error:  0.22E-15 on Mesh   3 at (  81   1   6)
       Maximum Pressure Error:  0.48E+03 on Mesh   3 at (  46   7   1)
       ScaRC: iterations   100, residual  0.34E-01, convergence rate   0.89E+00
       ---------------------------------------------------------------
       Mesh    1
       Max CFL number:  0.30E-02 at (  18,   2,  13)
       Max divergence:  0.49E-04 at (   1,  20,  20)
       Min divergence: -0.27E-04 at (   1,   1,   1)
       Max div. error:  0.53E-05 at (  15,   2,  20)
       Max VN number:   0.16E-02 at (  13,   2,  14)
       Radiation Loss to Boundaries:         0.073 kW
       Mesh    2
       Max CFL number:  0.17E-02 at (   1,   2,   3)
       Max divergence:  0.34E-03 at (  80,   2,  20)
       Min divergence: -0.14E-04 at (   1,   1,   1)
       Max div. error:  0.32E-05 at (   1,   2,   2)
       Max VN number:   0.91E-03 at (  70,  13,  14)
       Radiation Loss to Boundaries:         3.357 kW
       Mesh    3
       Max CFL number:  0.91E+00 at (  52,  10,  14)
       Max divergence:  0.15E+02 at (  53,  12,   4)
       Min divergence: -0.58E+01 at (  52,  11,   9)
       Max VN number:   0.24E+00 at (  49,   8,  20)
       Total Heat Release Rate:           6840.133 kW
       Radiation Loss to Boundaries:     -1495.730 kW
       Mesh    4
       Max CFL number:  0.75E-01 at (   1,  10,  19)
       Max divergence:  0.22E-02 at (   1,  13,   8)
       Min divergence: -0.14E-06 at (  77,  15,  11)
       Max VN number:   0.27E-01 at (   1,   1,  20)
       Radiation Loss to Boundaries:        26.954 kW
       Mesh    5
       Max CFL number:  0.65E-01 at (  29,  17,  16)
       Max divergence:  0.14E-04 at (   1,  20,  20)
       Min divergence: -0.12E-05 at (  52,  11,  18)
       Max VN number:   0.24E-01 at (   1,  20,   1)
       Radiation Loss to Boundaries:         0.019 kW
       Mesh    6
       Max CFL number:  0.65E-01 at (  79,   3,   6)
       Max divergence:  0.12E-05 at (  70,  11,   4)
       Min divergence: -0.14E-05 at (   4,  14,   7)
       Max VN number:   0.24E-01 at (  57,  20,  20)
       Mesh    7
       Max CFL number:  0.65E-01 at (  25,   3,  17)
       Max divergence:  0.12E-05 at (  63,  14,   7)
       Min divergence: -0.13E-05 at (   8,   4,   7)
       Max VN number:   0.24E-01 at (  40,  20,  20)
       Mesh    8
       Max CFL number:  0.65E-01 at (  71,   5,   6)
       Max divergence:  0.15E-05 at (  51,   9,   8)
       Min divergence: -0.15E-05 at (  52,   5,   6)
       Max VN number:   0.24E-01 at (  29,  20,   1)
 
       Time Step     200   June 26, 2020  20:07:08
       Step Size:    0.113E-01 s, Total Time:       4.13 s
       Pressure Iterations:      6
       Maximum Velocity Error:  0.89E-15 on Mesh   3 at (  81   1  19)
       Maximum Pressure Error:  0.20E+04 on Mesh   3 at (  63   7  20)
       ScaRC: iterations   100, residual  0.38E+00, convergence rate   0.90E+00
       ---------------------------------------------------------------
       Mesh    1
       Max CFL number:  0.36E-02 at (  16,   2,  11)
       Max divergence:  0.62E-05 at (  14,   1,   1)
       Min divergence: -0.48E-04 at (  16,   3,  15)
       Max div. error:  0.50E-04 at (  15,   2,  20)
       Max VN number:   0.18E-02 at (  13,   2,  14)
       Radiation Loss to Boundaries:         0.073 kW
       Mesh    2
       Max CFL number:  0.20E-02 at (   1,   2,   3)
       Max divergence:  0.35E-03 at (  80,  19,   9)
       Min divergence: -0.17E-04 at (   1,   2,   4)
       Max div. error:  0.30E-04 at (   1,   2,   2)
       Max VN number:   0.78E-03 at (   1,   2,   2)
       Radiation Loss to Boundaries:         3.838 kW
       Mesh    3
       Max CFL number:  0.99E+00 at (  59,  11,  15)
       Max divergence:  0.20E+02 at (  55,  12,   1)
       Min divergence: -0.32E+01 at (  59,  12,  15)
       Max div. error:  0.76E-07 at (  80,   2,  20)
       Max VN number:   0.37E+00 at (  61,  11,  20)
       Total Heat Release Rate:           8281.719 kW
       Radiation Loss to Boundaries:     -2217.658 kW
       Mesh    4
       Max CFL number:  0.52E+00 at (   1,  18,  20)
       Max divergence:  0.97E+00 at (   4,   1,  20)
       Min divergence: -0.74E+00 at (   3,   2,  20)
       Max div. error:  0.76E-07 at (  80,   2,  20)
       Max VN number:   0.20E+00 at (   2,  20,  20)
       Total Heat Release Rate:             13.648 kW
       Radiation Loss to Boundaries:       -34.884 kW
       Mesh    5
       Max CFL number:  0.58E-01 at (  76,  10,  17)
       Max divergence:  0.25E-04 at (   1,   1,   2)
       Min divergence: -0.11E-05 at (  50,  12,  14)
       Max div. error:  0.76E-07 at (  80,   2,  20)
       Max VN number:   0.21E-01 at (  80,   1,  20)
       Radiation Loss to Boundaries:         0.070 kW
       Mesh    6
       Max CFL number:  0.58E-01 at (  52,   4,  16)
       Max divergence:  0.14E-05 at (   7,   7,   7)
       Min divergence: -0.14E-05 at (  36,  17,   4)
       Max div. error:  0.76E-07 at (  80,   2,  20)
       Max VN number:   0.21E-01 at (  25,  20,  20)
       Mesh    7
       Max CFL number:  0.59E-01 at (  36,  18,  11)
       Max divergence:  0.12E-05 at (   4,  18,   5)
       Min divergence: -0.12E-05 at (  13,   7,  14)
       Max div. error:  0.76E-07 at (  80,   2,  20)
       Max VN number:   0.21E-01 at (  40,  20,  20)
       Mesh    8
       Max CFL number:  0.58E-01 at (  57,   5,   8)
       Max divergence:  0.13E-05 at (  32,   9,  13)
       Min divergence: -0.13E-05 at (  64,   3,  14)
       Max div. error:  0.72E-07 at (   1,   2,  20)
       Max VN number:   0.21E-01 at (  52,   1,   1)
 
       Time Step     300   June 26, 2020  21:58:59
       Step Size:    0.128E-01 s, Total Time:       5.38 s
       Pressure Iterations:      9
       Maximum Velocity Error:  0.89E-15 on Mesh   3 at (  81  10  19)
       Maximum Pressure Error:  0.46E+03 on Mesh   3 at (  43   6   1)
       ScaRC: iterations   100, residual  0.24E-01, convergence rate   0.89E+00
       ---------------------------------------------------------------
       Mesh    1
       Max CFL number:  0.52E-02 at (  16,   2,  10)
       Max divergence:  0.62E-04 at (  14,   2,  17)
       Min divergence: -0.27E-04 at (  14,   1,  16)
       Max div. error:  0.36E-05 at (  15,   2,  20)
       Max VN number:   0.23E-02 at (  13,   2,  14)
       Radiation Loss to Boundaries:         0.074 kW
       Mesh    2
       Max CFL number:  0.51E-02 at (  80,  19,  20)
       Max divergence:  0.32E-03 at (  80,  19,  13)
       Min divergence: -0.11E-04 at (   1,   1,   1)
       Max div. error:  0.22E-05 at (   1,   2,   2)
       Max VN number:   0.11E-02 at (   1,   2,   2)
       Radiation Loss to Boundaries:         2.944 kW
       Mesh    3
       Max CFL number:  0.92E+00 at (  59,   9,  18)
       Max divergence:  0.18E+02 at (  60,   9,   1)
       Min divergence: -0.26E+01 at (  57,   8,  12)
       Max VN number:   0.38E+00 at (  69,   1,  19)
       Total Heat Release Rate:           9816.835 kW
       Radiation Loss to Boundaries:     -2726.138 kW
       Mesh    4
       Max CFL number:  0.71E+00 at (   1,  10,  20)
       Max divergence:  0.11E+01 at (  24,   1,  13)
       Min divergence: -0.11E+01 at (  16,   1,   9)
       Max VN number:   0.23E+00 at (   1,  20,  20)
       Total Heat Release Rate:              1.836 kW
       Radiation Loss to Boundaries:      -218.967 kW
       Mesh    5
       Max CFL number:  0.72E-01 at (  33,   5,  18)
       Max divergence:  0.27E-04 at (   1,  11,   3)
       Min divergence: -0.11E-05 at (  62,   6,  16)
       Max VN number:   0.25E-01 at (   1,   1,  20)
       Radiation Loss to Boundaries:         0.188 kW
       Mesh    6
       Max CFL number:  0.71E-01 at (  58,  13,   7)
       Max divergence:  0.13E-05 at (  31,  17,   4)
       Min divergence: -0.13E-05 at (  38,  17,  10)
       Max VN number:   0.25E-01 at (  11,   1,  20)
       Mesh    7
       Max CFL number:  0.72E-01 at (  66,   4,  11)
       Max divergence:  0.12E-05 at (  40,   7,  10)
       Min divergence: -0.13E-05 at (  67,   5,   3)
       Max VN number:   0.25E-01 at (  33,  20,  20)
       Mesh    8
       Max CFL number:  0.72E-01 at (  44,  18,   8)
       Max divergence:  0.13E-05 at (  42,  10,   4)
       Min divergence: -0.11E-05 at (  22,  14,  13)
       Max VN number:   0.25E-01 at (  59,  20,  20)
 
       Time Step     400   June 26, 2020  23:46:09
       Step Size:    0.138E-01 s, Total Time:       6.67 s
       Pressure Iterations:      4
       Maximum Velocity Error:  0.89E-15 on Mesh   3 at (  81   1  15)
       Maximum Pressure Error:  0.34E+04 on Mesh   3 at (  51  13   1)
       ScaRC: iterations   100, residual  0.15E+01, convergence rate   0.91E+00
       ---------------------------------------------------------------
       Mesh    1
       Max CFL number:  0.70E-02 at (  16,   2,  10)
       Max divergence:  0.91E-04 at (   1,   1,   1)
       Min divergence: -0.21E-03 at (   9,  20,  13)
       Max div. error:  0.24E-03 at (  15,   2,  20)
       Max VN number:   0.29E-02 at (  13,   2,  13)
       Radiation Loss to Boundaries:         0.076 kW
       Mesh    2
       Max CFL number:  0.49E-01 at (  80,  18,  20)
       Max divergence:  0.39E-03 at (  80,   3,  13)
       Min divergence: -0.13E-03 at (   1,   2,   2)
       Max div. error:  0.15E-03 at (   1,   2,   2)
       Max VN number:   0.18E-01 at (  80,  20,  20)
       Radiation Loss to Boundaries:         3.929 kW
       Mesh    3
       Max CFL number:  0.87E+00 at (  55,   9,  15)
       Max divergence:  0.21E+02 at (  55,  10,   1)
       Min divergence: -0.33E+01 at (  53,  14,  13)
       Max div. error:  0.37E-06 at (  80,   2,  20)
       Max VN number:   0.37E+00 at (  57,   7,  20)
       Total Heat Release Rate:           8384.707 kW
       Radiation Loss to Boundaries:     -2077.849 kW
       Mesh    4
       Max CFL number:  0.67E+00 at (   7,  20,  20)
       Max divergence:  0.98E+00 at (   3,   1,  11)
       Min divergence: -0.90E+00 at (  10,  19,   7)
       Max div. error:  0.37E-06 at (  80,   2,  20)
       Max VN number:   0.27E+00 at (   5,  20,  20)
       Total Heat Release Rate:              0.305 kW
       Radiation Loss to Boundaries:      -241.939 kW
       Mesh    5
       Max CFL number:  0.64E-01 at (   1,  16,  14)
       Max divergence:  0.34E-04 at (   1,  10,   9)
       Min divergence: -0.11E-05 at (  70,  11,  18)
       Max div. error:  0.37E-06 at (  80,   2,  20)
       Max VN number:   0.22E-01 at (   1,   1,  20)
       Radiation Loss to Boundaries:         0.367 kW
       Mesh    6
       Max CFL number:  0.64E-01 at (  21,  11,   4)
       Max divergence:  0.13E-05 at (  12,   8,   3)
       Min divergence: -0.11E-05 at (  44,  11,  14)
       Max div. error:  0.37E-06 at (  80,   2,  20)
       Max VN number:   0.22E-01 at (  15,   1,  20)
       Mesh    7
       Max CFL number:  0.64E-01 at (  56,   3,   9)
       Max divergence:  0.13E-05 at (   2,  11,  11)
       Min divergence: -0.14E-05 at (   2,  17,  13)
       Max div. error:  0.37E-06 at (  80,   2,  20)
       Max VN number:   0.22E-01 at (  28,   1,  20)
       Mesh    8
       Max CFL number:  0.64E-01 at (  34,  14,   9)
       Max divergence:  0.11E-05 at (  33,   8,  18)
       Min divergence: -0.14E-05 at (  12,   7,   6)
       Max div. error:  0.35E-06 at (   1,   2,  20)
       Max VN number:   0.22E-01 at (  63,  20,  20)
 
