
 Fire Dynamics Simulator

 Current Date     : June 26, 2020  16:17:56
 Revision         : -AMG
 Revision Date    : Fri Jun 26 15:19:14 2020 +0200
 Compiler         : Intel ifort 19.0.5.281
 Compilation Date : Jun 26, 2020 15:25:32

 MPI Enabled;    Number of MPI Processes:       8
 OpenMP Enabled; Number of OpenMP Threads:      2

 MPI version: 3.1
 MPI library version: Intel(R) MPI Library 2018 Update 1 for Linux* OS


 Job TITLE        : Example of a tunnel simulation
 Job ID string    : tunnel_demo


 Grid Dimensions, Mesh     1

   Cells in the X Direction            80
   Cells in the Y Direction            20
   Cells in the Z Direction            20
   Number of Grid Cells             32000


 Physical Dimensions, Mesh     1

   Length (m)                      16.000
   Width  (m)                       4.000
   Height (m)                       4.000
   Initial Time Step (s)            0.158

 Grid Dimensions, Mesh     2

   Cells in the X Direction            80
   Cells in the Y Direction            20
   Cells in the Z Direction            20
   Number of Grid Cells             32000


 Physical Dimensions, Mesh     2

   Length (m)                      16.000
   Width  (m)                       4.000
   Height (m)                       4.000
   Initial Time Step (s)            0.158

 Grid Dimensions, Mesh     3

   Cells in the X Direction            80
   Cells in the Y Direction            20
   Cells in the Z Direction            20
   Number of Grid Cells             32000


 Physical Dimensions, Mesh     3

   Length (m)                      16.000
   Width  (m)                       4.000
   Height (m)                       4.000
   Initial Time Step (s)            0.158

 Grid Dimensions, Mesh     4

   Cells in the X Direction            80
   Cells in the Y Direction            20
   Cells in the Z Direction            20
   Number of Grid Cells             32000


 Physical Dimensions, Mesh     4

   Length (m)                      16.000
   Width  (m)                       4.000
   Height (m)                       4.000
   Initial Time Step (s)            0.158

 Grid Dimensions, Mesh     5

   Cells in the X Direction            80
   Cells in the Y Direction            20
   Cells in the Z Direction            20
   Number of Grid Cells             32000


 Physical Dimensions, Mesh     5

   Length (m)                      16.000
   Width  (m)                       4.000
   Height (m)                       4.000
   Initial Time Step (s)            0.158

 Grid Dimensions, Mesh     6

   Cells in the X Direction            80
   Cells in the Y Direction            20
   Cells in the Z Direction            20
   Number of Grid Cells             32000


 Physical Dimensions, Mesh     6

   Length (m)                      16.000
   Width  (m)                       4.000
   Height (m)                       4.000
   Initial Time Step (s)            0.158

 Grid Dimensions, Mesh     7

   Cells in the X Direction            80
   Cells in the Y Direction            20
   Cells in the Z Direction            20
   Number of Grid Cells             32000


 Physical Dimensions, Mesh     7

   Length (m)                      16.000
   Width  (m)                       4.000
   Height (m)                       4.000
   Initial Time Step (s)            0.158

 Grid Dimensions, Mesh     8

   Cells in the X Direction            80
   Cells in the Y Direction            20
   Cells in the Z Direction            20
   Number of Grid Cells             32000


 Physical Dimensions, Mesh     8

   Length (m)                      16.000
   Width  (m)                       4.000
   Height (m)                       4.000
   Initial Time Step (s)            0.158

Total Number of Grid Cells        256000


 Miscellaneous Parameters

   Simulation Start Time (s)          0.0
   Simulation End Time (s)           30.0
   LES Calculation
   Eddy Viscosity:           Deardorff Model (C_DEARDORFF = 0.10)
   Near-wall Eddy Viscosity: Smagorinsky with Van Driest damping (C_SMAGORINSKY = 0.20)
   Turbulent Prandtl Number:         0.50
   Turbulent Schmidt Number:         0.50
   Ambient Temperature (C):         20.00


 Mass Fraction Transformation Matrix to Convert Species Mixtures (Columns) to Primitive Species (Rows)

                         AIR       PROPANE   PRODUCTS
   PROPANE               0.000000  1.000000  0.000000
   NITROGEN              0.762470  0.000000  0.716347
   OXYGEN                0.230997  0.000000  0.000000
   CARBON DIOXIDE        0.000591  0.000000  0.178383
   CARBON MONOXIDE       0.000000  0.000000  0.000000
   WATER VAPOR           0.005941  0.000000  0.104363
   SOOT                  0.000000  0.000000  0.000907
   HYDROGEN              0.000000  0.000000  0.000000


 Primitive Species Information

   PROPANE
   Gas Species
   Molecular Weight (g/mol)            44.09562
   Ambient Density (kg/m^3)            1.833
   Enthalpy of Formation (J/kg)       -2.37E+06

   NITROGEN
   Gas Species
   Molecular Weight (g/mol)            28.01340
   Ambient Density (kg/m^3)            1.165
   Enthalpy of Formation (J/kg)        0.00E+00

   OXYGEN
   Gas Species
   Molecular Weight (g/mol)            31.99880
   Ambient Density (kg/m^3)            1.330
   Enthalpy of Formation (J/kg)        0.00E+00

   CARBON DIOXIDE
   Gas Species
   Molecular Weight (g/mol)            44.00950
   Ambient Density (kg/m^3)            1.830
   Enthalpy of Formation (J/kg)       -8.94E+06

   CARBON MONOXIDE
   Gas Species
   Molecular Weight (g/mol)            28.01010
   Ambient Density (kg/m^3)            1.164
   Enthalpy of Formation (J/kg)       -3.95E+06

   WATER VAPOR
   Gas Species
   Molecular Weight (g/mol)            18.01528
   Ambient Density (kg/m^3)            0.749
   Enthalpy of Formation (J/kg)       -1.34E+07

   SOOT
   Gas Species
   Molecular Weight (g/mol)            10.91042
   Ambient Density (kg/m^3)            0.454
   Enthalpy of Formation (J/kg)        0.00E+00

   HYDROGEN
   Gas Species
   Molecular Weight (g/mol)             2.01588
   Ambient Density (kg/m^3)            0.084
   Enthalpy of Formation (J/kg)        0.00E+00


 Tracked (Lumped) Species Information

   AIR
   Molecular Weight (g/mol)            28.75199
   Ambient Density (kg/m^3)            1.195
   Initial Mass Fraction               1.000
   Enthalpy of Formation (J/kg)     -8.50E+04

   Sub Species                    Mass Fraction     Mole Fraction
   NITROGEN                       7.624701E-01      7.825730E-01
   OXYGEN                         2.309974E-01      2.075589E-01
   CARBON DIOXIDE                 5.914651E-04      3.864120E-04
   WATER VAPOR                    5.940984E-03      9.481679E-03
 
     Viscosity (kg/m/s) Ambient,  293 K:  1.80E-05
                                  500 K:  2.61E-05
                                 1000 K:  4.13E-05
                                 1500 K:  5.37E-05
   Therm. Cond. (W/m/K) Ambient,  293 K:  2.56E-02
                                  500 K:  3.81E-02
                                 1000 K:  6.69E-02
                                 1500 K:  9.25E-02
        Enthalpy (J/kg) Ambient,  293 K: -9.01E+04
                                  500 K:  1.22E+05
                                 1000 K:  6.72E+05
                                 1500 K:  1.27E+06
    Spec. Heat (J/kg/K) Ambient,  293 K:  1.02E+03
                                  500 K:  1.04E+03
                                 1000 K:  1.16E+03
                                 1500 K:  1.23E+03
   Diff. Coeff. (m^2/s) Ambient,  293 K:  1.99E-05
                                  500 K:  4.96E-05
                                 1000 K:  1.58E-04
                                 1500 K:  3.09E-04

   PROPANE
   Molecular Weight (g/mol)            44.09562
   Ambient Density (kg/m^3)            1.833
   Initial Mass Fraction               0.000
   Enthalpy of Formation (J/kg)     -2.37E+06

   Sub Species                    Mass Fraction     Mole Fraction
   PROPANE                        1.000000E+00      1.000000E+00
 
     Viscosity (kg/m/s) Ambient,  293 K:  8.08E-06
                                  500 K:  1.31E-05
                                 1000 K:  2.23E-05
                                 1500 K:  2.96E-05
   Therm. Cond. (W/m/K) Ambient,  293 K:  1.66E-02
                                  500 K:  4.18E-02
                                 1000 K:  1.11E-01
                                 1500 K:  1.72E-01
        Enthalpy (J/kg) Ambient,  293 K: -2.38E+06
                                  500 K: -1.95E+06
                                 1000 K: -2.77E+05
                                 1500 K:  1.90E+06
    Spec. Heat (J/kg/K) Ambient,  293 K:  1.65E+03
                                  500 K:  2.55E+03
                                 1000 K:  3.96E+03
                                 1500 K:  4.67E+03
   Diff. Coeff. (m^2/s) Ambient,  293 K:  1.11E-05
                                  500 K:  2.86E-05
                                 1000 K:  9.32E-05
                                 1500 K:  1.83E-04

   PRODUCTS
   Molecular Weight (g/mol)            28.16819
   Ambient Density (kg/m^3)            1.171
   Initial Mass Fraction               0.000
   Enthalpy of Formation (J/kg)     -3.00E+06

   Sub Species                    Mass Fraction     Mole Fraction
   NITROGEN                       7.163468E-01      7.203050E-01
   CARBON DIOXIDE                 1.783831E-01      1.141737E-01
   CARBON MONOXIDE                0.000000E+00      0.000000E+00
   WATER VAPOR                    1.043628E-01      1.631787E-01
   SOOT                           9.073796E-04      2.342644E-03
 
     Viscosity (kg/m/s) Ambient,  293 K:  1.61E-05
                                  500 K:  2.39E-05
                                 1000 K:  3.89E-05
                                 1500 K:  5.14E-05
   Therm. Cond. (W/m/K) Ambient,  293 K:  2.34E-02
                                  500 K:  3.62E-02
                                 1000 K:  6.71E-02
                                 1500 K:  9.63E-02
        Enthalpy (J/kg) Ambient,  293 K: -3.00E+06
                                  500 K: -2.77E+06
                                 1000 K: -2.16E+06
                                 1500 K: -1.48E+06
    Spec. Heat (J/kg/K) Ambient,  293 K:  1.09E+03
                                  500 K:  1.14E+03
                                 1000 K:  1.30E+03
                                 1500 K:  1.40E+03
   Diff. Coeff. (m^2/s) Ambient,  293 K:  1.95E-05
                                  500 K:  4.96E-05
                                 1000 K:  1.60E-04
                                 1500 K:  3.15E-04


 Gas Phase Reaction Information

   Fuel                                           Heat of Combustion (kJ/kg)
   PROPANE                                                        45831.0920

   Stoichiometry

   Primitive Species Stoich. Coeff.
   Species ID                                                          Molar
   PROPANE                                                         -1.000000
   OXYGEN                                                          -4.943923
   CARBON DIOXIDE                                                   2.945438
   WATER VAPOR                                                      3.996969
   SOOT                                                             0.060624

   Tracked (Lumped) Species Stoich. Coeff.
   Species ID                                             Molar         Mass
   AIR                                               -23.819373   -15.531119
   PROPANE                                            -1.000000    -1.000000
   PRODUCTS                                           25.878481    16.531119

   Reaction Kinetics

   Arrhenius Parameters
   Pre-exponential:    Infinite
   Activation Energy:  N/A

   ODE Solver:  EXPLICIT EULER
   Extinction Model:  EXTINCTION 2
   Auto-Ignition Temperature (K):       0.0
   Critical Flame Temperature (K):   1720.2


 Material Information


 Surface Conditions

   0 INERT (DEFAULT)

   1 fire
     HRR Per Unit Area (kW/m2)       2000.0
     PROPANE Mass Flux (kg/s/m2)   4.36E-02

   2 OPEN
     Passive Vent to Atmosphere

   3 MIRROR
     Symmetry Plane

   4 INTERPOLATED

   5 PERIODIC

   6 HVAC

   7 MASSLESS TRACER

   8 DROPLET

   9 EVACUATION_OUTFLOW
     Normal Velocity (m/s)         0.000

  10 MASSLESS TARGET

  11 PERIODIC WIND


 Device Coordinates

     1 Coords:      0.002000      0.000000      0.002000, Make: null, ID: cpu, Quantity: CPU TIME


 Slice File Information, Mesh     1

   Sampling Interval (s)             0.030

   1 Nodes:   0  80  10  10   0  20, Quantity: TEMPERATURE
   2 Nodes:   0  80  10  10   0  20, Quantity: U-VELOCITY
   3 Nodes:   0  80  10  10   0  20, Quantity: V-VELOCITY
   4 Nodes:   0  80  10  10   0  20, Quantity: W-VELOCITY
   5 Nodes:   0  80  11  11   0  20, Quantity: H


 Radiation Model Information

   Number of control angles  104
   Time step increment         3
   Angle increment             5
   Theta band N_phi   Solid angle
     1:        4     0.120
     2:       12     0.114
     3:       16     0.127
     4:       20     0.120
     5:       20     0.120
     6:       16     0.127
     7:       12     0.114
     8:        4     0.120
   Using gray gas absorption.
   Mean beam length  0.100 m
 
 

 Run Time Diagnostics

       Time Step       1   June 26, 2020  16:17:56
       Step Size:    0.158E+00 s, Total Time:       0.16 s
       Pressure Iterations:      1
       Maximum Velocity Error:  0.12E-02 on Mesh   5 at (  81  10  20)
       Maximum Pressure Error:  0.49E-01 on Mesh   3 at (  44  12   1)
       ---------------------------------------------------------------
       Mesh    1
       Max CFL number:  0.15E-01 at (  54,  16,  12)
       Max divergence:  0.12E-05 at (  54,  16,  14)
       Min divergence: -0.12E-05 at (  17,  18,  10)
       Max VN number:   0.11E-01 at (  17,  11,   8)
       Mesh    2
       Max CFL number:  0.15E-01 at (  57,  10,   4)
       Max divergence:  0.12E-05 at (  12,   3,  16)
       Min divergence: -0.13E-05 at (   4,   2,  16)
       Max VN number:   0.12E-01 at (  57,  12,   4)
       Radiation Loss to Boundaries:        -0.001 kW
       Mesh    3
       Max CFL number:  0.15E-01 at (  15,  13,   9)
       Max divergence:  0.20E-05 at (  41,  13,   2)
       Min divergence: -0.12E-02 at (  50,  10,   1)
       Max VN number:   0.11E-01 at (  56,  17,  10)
       Radiation Loss to Boundaries:        -0.001 kW
       Mesh    4
       Max CFL number:  0.15E-01 at (  72,  17,   7)
       Max divergence:  0.12E-05 at (  76,  17,  16)
       Min divergence: -0.12E-05 at (  55,  18,  11)
       Max VN number:   0.11E-01 at (  45,   3,   7)
       Radiation Loss to Boundaries:        -0.001 kW
       Mesh    5
       Max CFL number:  0.15E-01 at (  77,  10,  15)
       Max divergence:  0.13E-05 at (  77,  10,  15)
       Min divergence: -0.12E-05 at (   3,   8,  11)
       Max VN number:   0.11E-01 at (  59,  11,   8)
       Radiation Loss to Boundaries:        -0.001 kW
       Mesh    6
       Max CFL number:  0.15E-01 at (   6,  19,  13)
       Max divergence:  0.12E-05 at (  55,   2,   3)
       Min divergence: -0.12E-05 at (  78,  15,  10)
       Max VN number:   0.11E-01 at (  78,  15,   2)
       Radiation Loss to Boundaries:        -0.001 kW
       Mesh    7
       Max CFL number:  0.15E-01 at (  22,  18,   8)
       Max divergence:  0.12E-05 at (  47,  10,  11)
       Min divergence: -0.12E-05 at (  79,  11,  10)
       Max VN number:   0.11E-01 at (  65,   9,   8)
       Radiation Loss to Boundaries:        -0.001 kW
       Mesh    8
       Max CFL number:  0.15E-01 at (  20,  19,  15)
       Max divergence:  0.11E-05 at (  55,  12,  15)
       Min divergence: -0.12E-05 at (  18,   6,  11)
       Max VN number:   0.11E-01 at (  31,  15,  12)
 
       Time Step       2   June 26, 2020  16:17:57
       Step Size:    0.158E+00 s, Total Time:       0.32 s
       Pressure Iterations:      3
       Maximum Velocity Error:  0.10E+00 on Mesh   3 at (  81  12   1)
       Maximum Pressure Error:  0.24E+03 on Mesh   3 at (  45  11   1)
       ---------------------------------------------------------------
       Mesh    1
       Max CFL number:  0.15E-01 at (  54,  16,  12)
       Max divergence:  0.12E-05 at (  54,  16,  14)
       Min divergence: -0.12E-05 at (  17,  18,  10)
       Max VN number:   0.11E-01 at (  17,  11,   8)
       Mesh    2
       Max CFL number:  0.15E-01 at (  57,  10,   4)
       Max divergence:  0.12E-05 at (  12,   3,  16)
       Min divergence: -0.13E-05 at (   4,   2,  16)
       Max VN number:   0.12E-01 at (  57,  12,   4)
       Radiation Loss to Boundaries:        -0.001 kW
       Mesh    3
       Max CFL number:  0.16E-01 at (  15,  13,   9)
       Max divergence:  0.35E+01 at (  42,   8,   1)
       Min divergence: -0.11E-05 at (  22,  10,   8)
       Max VN number:   0.11E-01 at (  56,  17,  10)
       Total Heat Release Rate:           1005.003 kW
       Radiation Loss to Boundaries:        -0.001 kW
       Mesh    4
       Max CFL number:  0.15E-01 at (  21,   8,   5)
       Max divergence:  0.12E-05 at (  76,  17,  16)
       Min divergence: -0.12E-05 at (  55,  18,  11)
       Max VN number:   0.11E-01 at (  45,   3,   7)
       Radiation Loss to Boundaries:        -0.001 kW
       Mesh    5
       Max CFL number:  0.15E-01 at (  77,  10,  15)
       Max divergence:  0.13E-05 at (  77,  10,  15)
       Min divergence: -0.12E-05 at (   3,   8,  11)
       Max VN number:   0.11E-01 at (  59,  11,   8)
       Radiation Loss to Boundaries:        -0.001 kW
       Mesh    6
       Max CFL number:  0.15E-01 at (   6,  19,  13)
       Max divergence:  0.12E-05 at (  55,   2,   3)
       Min divergence: -0.12E-05 at (  78,  15,  10)
       Max VN number:   0.11E-01 at (  78,  15,   2)
       Radiation Loss to Boundaries:        -0.001 kW
       Mesh    7
       Max CFL number:  0.15E-01 at (  22,  17,   8)
       Max divergence:  0.12E-05 at (  47,  10,  11)
       Min divergence: -0.12E-05 at (  79,  11,  10)
       Max VN number:   0.11E-01 at (  65,   9,   8)
       Radiation Loss to Boundaries:        -0.001 kW
       Mesh    8
       Max CFL number:  0.15E-01 at (  20,  18,  15)
       Max divergence:  0.11E-05 at (  55,  12,  15)
       Min divergence: -0.12E-05 at (  18,   6,  11)
       Max VN number:   0.11E-01 at (  31,  15,  12)
 
       Time Step       3   June 26, 2020  16:17:57
       Step Size:    0.158E+00 s, Total Time:       0.47 s
       Pressure Iterations:     10
       Maximum Velocity Error:  0.17E+00 on Mesh   4 at (   0  11   1)
       Maximum Pressure Error:  0.46E+03 on Mesh   3 at (  50  15   1)
       ---------------------------------------------------------------
       Mesh    1
       Max CFL number:  0.15E-01 at (  54,  16,  12)
       Max divergence:  0.12E-05 at (  54,  16,  14)
       Min divergence: -0.12E-05 at (  17,  18,  10)
       Max VN number:   0.11E-01 at (  17,  11,   8)
       Mesh    2
       Max CFL number:  0.16E-01 at (  77,  13,  15)
       Max divergence:  0.12E-05 at (  12,   3,  16)
       Min divergence: -0.13E-05 at (   4,   2,  16)
       Max VN number:   0.12E-01 at (  57,  12,   4)
       Radiation Loss to Boundaries:        -0.001 kW
       Mesh    3
       Max CFL number:  0.84E+00 at (  46,  10,   1)
       Max divergence:  0.58E+01 at (  44,  10,   1)
       Min divergence: -0.71E-05 at (  40,   5,   2)
       Max VN number:   0.45E+00 at (  48,  10,   1)
       Total Heat Release Rate:           2082.995 kW
       Radiation Loss to Boundaries:      -164.405 kW
       Mesh    4
       Max CFL number:  0.16E-01 at (  24,   4,   9)
       Max divergence:  0.12E-05 at (  76,  17,  16)
       Min divergence: -0.12E-05 at (  55,  18,  11)
       Max VN number:   0.12E-01 at (   2,   4,  15)
       Radiation Loss to Boundaries:        -0.001 kW
       Mesh    5
       Max CFL number:  0.15E-01 at (  77,  10,  15)
       Max divergence:  0.13E-05 at (  77,  10,  15)
       Min divergence: -0.12E-05 at (   3,   8,  11)
       Max VN number:   0.11E-01 at (  59,  11,   8)
       Radiation Loss to Boundaries:        -0.001 kW
       Mesh    6
       Max CFL number:  0.15E-01 at (   6,  19,  13)
       Max divergence:  0.12E-05 at (  55,   2,   3)
       Min divergence: -0.12E-05 at (  78,  15,  10)
       Max VN number:   0.11E-01 at (  78,  15,   2)
       Radiation Loss to Boundaries:        -0.001 kW
       Mesh    7
       Max CFL number:  0.15E-01 at (  22,  17,   8)
       Max divergence:  0.12E-05 at (  47,  10,  11)
       Min divergence: -0.12E-05 at (  79,  11,  10)
       Max VN number:   0.11E-01 at (  65,   9,   8)
       Radiation Loss to Boundaries:        -0.001 kW
       Mesh    8
       Max CFL number:  0.15E-01 at (  20,  18,  15)
       Max divergence:  0.11E-05 at (  55,  12,  15)
       Min divergence: -0.12E-05 at (  18,   6,  11)
       Max VN number:   0.11E-01 at (  31,  15,  12)
 
       Time Step       4   June 26, 2020  16:17:57
       Step Size:    0.676E-01 s, Total Time:       0.54 s
       Pressure Iterations:     10
       Maximum Velocity Error:  0.12E+00 on Mesh   3 at (  81  20  20)
       Maximum Pressure Error:  0.41E+03 on Mesh   3 at (  45  11   1)
       ---------------------------------------------------------------
       Mesh    1
       Max CFL number:  0.62E-02 at (  54,  16,  12)
       Max divergence:  0.12E-05 at (  54,  16,  14)
       Min divergence: -0.12E-05 at (  17,  18,  10)
       Max VN number:   0.46E-02 at (  62,   6,  15)
       Mesh    2
       Max CFL number:  0.13E-01 at (  77,  13,  15)
       Max divergence:  0.12E-05 at (  12,   3,  16)
       Min divergence: -0.13E-05 at (   4,   2,  16)
       Max VN number:   0.58E-02 at (  79,   8,  16)
       Mesh    3
       Max CFL number:  0.61E+00 at (  44,  10,   1)
       Max divergence:  0.42E+01 at (  50,  11,   1)
       Min divergence: -0.10E-05 at (  10,  19,   2)
       Max VN number:   0.22E+00 at (  49,  11,   1)
       Total Heat Release Rate:           3025.084 kW
       Radiation Loss to Boundaries:     -1290.419 kW
       Mesh    4
       Max CFL number:  0.14E-01 at (  24,   4,   9)
       Max divergence:  0.12E-05 at (  76,  17,  16)
       Min divergence: -0.12E-05 at (  55,  18,  11)
       Max VN number:   0.79E-02 at (   1,  12,   1)
       Mesh    5
       Max CFL number:  0.69E-02 at (  21,   7,   8)
       Max divergence:  0.13E-05 at (  77,  10,  15)
       Min divergence: -0.12E-05 at (  66,  16,   4)
       Max VN number:   0.47E-02 at (  59,  11,   8)
       Mesh    6
       Max CFL number:  0.64E-02 at (  37,   5,  19)
       Max divergence:  0.12E-05 at (  55,   2,   3)
       Min divergence: -0.12E-05 at (  78,  15,  10)
       Max VN number:   0.48E-02 at (  78,  15,   2)
       Mesh    7
       Max CFL number:  0.64E-02 at (  22,  17,   8)
       Max divergence:  0.12E-05 at (  47,  10,  11)
       Min divergence: -0.12E-05 at (  51,  19,   5)
       Max VN number:   0.47E-02 at (  65,   9,   8)
       Mesh    8
       Max CFL number:  0.64E-02 at (  20,  18,  15)
       Max divergence:  0.11E-05 at (  55,  12,  15)
       Min divergence: -0.12E-05 at (  18,   6,  11)
       Max VN number:   0.47E-02 at (  31,  15,  12)
 
       Time Step       5   June 26, 2020  16:17:57
       Step Size:    0.743E-01 s, Total Time:       0.62 s
       Pressure Iterations:     10
       Maximum Velocity Error:  0.10E+00 on Mesh   3 at (  81  20   1)
       Maximum Pressure Error:  0.20E+03 on Mesh   3 at (  41   6   1)
       ---------------------------------------------------------------
       Mesh    1
       Max CFL number:  0.68E-02 at (  54,  16,  12)
       Max divergence:  0.12E-05 at (  54,  16,  14)
       Min divergence: -0.12E-05 at (  17,  18,  10)
       Max VN number:   0.51E-02 at (  79,  19,   8)
       Mesh    2
       Max CFL number:  0.19E-01 at (  77,  13,  15)
       Max divergence:  0.12E-05 at (  12,   3,  16)
       Min divergence: -0.13E-05 at (   4,   2,  16)
       Max VN number:   0.58E-02 at (  79,   8,  16)
       Mesh    3
       Max CFL number:  0.58E+00 at (  50,   6,   1)
       Max divergence:  0.16E+01 at (  50,   5,   1)
       Min divergence: -0.39E+01 at (  45,  10,   1)
       Max VN number:   0.20E+00 at (  50,  15,   1)
       Total Heat Release Rate:           3087.043 kW
       Radiation Loss to Boundaries:     -3828.029 kW
       Mesh    4
       Max CFL number:  0.22E-01 at (  24,   4,   9)
       Max divergence:  0.12E-05 at (  76,  17,  16)
       Min divergence: -0.12E-05 at (  55,  18,  11)
       Max VN number:   0.79E-02 at (   1,   9,   1)
       Mesh    5
       Max CFL number:  0.85E-02 at (  21,   7,   8)
       Max divergence:  0.13E-05 at (  77,  10,  15)
       Min divergence: -0.12E-05 at (  66,  16,   4)
       Max VN number:   0.52E-02 at (  59,  11,   8)
       Mesh    6
       Max CFL number:  0.70E-02 at (  37,   5,  19)
       Max divergence:  0.12E-05 at (  55,   2,   3)
       Min divergence: -0.12E-05 at (  78,  15,  10)
       Max VN number:   0.53E-02 at (  78,  15,   2)
       Mesh    7
       Max CFL number:  0.70E-02 at (  22,  17,   8)
       Max divergence:  0.12E-05 at (  47,  10,  11)
       Min divergence: -0.12E-05 at (  51,  19,   5)
       Max VN number:   0.52E-02 at (  65,   9,   8)
       Mesh    8
       Max CFL number:  0.71E-02 at (  20,  18,  15)
       Max divergence:  0.11E-05 at (  55,  12,  15)
       Min divergence: -0.12E-05 at (  18,   6,  11)
       Max VN number:   0.52E-02 at (  31,  15,  12)
 
       Time Step       6   June 26, 2020  16:17:58
       Step Size:    0.817E-01 s, Total Time:       0.70 s
       Pressure Iterations:      3
       Maximum Velocity Error:  0.38E-01 on Mesh   1 at (  81   9  20)
       Maximum Pressure Error:  0.38E+03 on Mesh   3 at (  50  15   1)
       ---------------------------------------------------------------
       Mesh    1
       Max CFL number:  0.75E-02 at (  54,  16,  12)
       Max divergence:  0.12E-05 at (  54,  16,  14)
       Min divergence: -0.12E-05 at (  17,  18,  10)
       Max VN number:   0.57E-02 at (  79,  19,   8)
       Mesh    2
       Max CFL number:  0.23E-01 at (  77,  13,  15)
       Max divergence:  0.12E-05 at (  12,   3,  16)
       Min divergence: -0.13E-05 at (   4,   2,  16)
       Max VN number:   0.59E-02 at (  57,  12,   4)
       Mesh    3
       Max CFL number:  0.88E+00 at (  41,  11,   1)
       Max divergence:  0.53E+01 at (  48,  15,   1)
       Min divergence: -0.24E+00 at (  50,  10,   1)
       Max VN number:   0.16E+00 at (  40,  15,   1)
       Total Heat Release Rate:            911.297 kW
       Radiation Loss to Boundaries:      -265.826 kW
       Mesh    4
       Max CFL number:  0.26E-01 at (  24,   4,   9)
       Max divergence:  0.12E-05 at (  76,  17,  16)
       Min divergence: -0.12E-05 at (  55,  18,  11)
       Max VN number:   0.67E-02 at (   2,  12,  16)
       Mesh    5
       Max CFL number:  0.12E-01 at (  21,   7,   8)
       Max divergence:  0.13E-05 at (  77,  10,  15)
       Min divergence: -0.12E-05 at (  66,  16,   4)
       Max VN number:   0.57E-02 at (  59,  11,   8)
       Mesh    6
       Max CFL number:  0.79E-02 at (  79,  18,   7)
       Max divergence:  0.13E-05 at (  55,   2,   3)
       Min divergence: -0.12E-05 at (  78,  15,  10)
       Max VN number:   0.58E-02 at (  78,  15,   2)
       Mesh    7
       Max CFL number:  0.77E-02 at (  22,  17,   8)
       Max divergence:  0.12E-05 at (  47,  10,  11)
       Min divergence: -0.12E-05 at (  51,  19,   5)
       Max VN number:   0.57E-02 at (  65,   9,   8)
       Mesh    8
       Max CFL number:  0.78E-02 at (  20,  18,  15)
       Max divergence:  0.11E-05 at (  55,  12,  15)
       Min divergence: -0.12E-05 at (  18,   6,  11)
       Max VN number:   0.57E-02 at (  31,  15,  12)
 
       Time Step       7   June 26, 2020  16:17:58
       Step Size:    0.817E-01 s, Total Time:       0.78 s
       Pressure Iterations:      3
       Maximum Velocity Error:  0.43E-01 on Mesh   3 at (  81   5  20)
       Maximum Pressure Error:  0.35E+03 on Mesh   3 at (  48  15   1)
       ---------------------------------------------------------------
       Mesh    1
       Max CFL number:  0.74E-02 at (  54,  16,  12)
       Max divergence:  0.12E-05 at (  54,  16,  14)
       Min divergence: -0.12E-05 at (  17,  18,  10)
       Max VN number:   0.58E-02 at (  79,  19,   8)
       Mesh    2
       Max CFL number:  0.25E-01 at (  77,  13,  15)
       Max divergence:  0.12E-05 at (  12,   3,  16)
       Min divergence: -0.12E-05 at (   4,   2,  16)
       Max VN number:   0.59E-02 at (  70,  13,  14)
       Mesh    3
       Max CFL number:  0.72E+00 at (  41,   8,   1)
       Max divergence:  0.42E+01 at (  41,  15,   1)
       Min divergence: -0.26E+01 at (  45,  15,   1)
       Max VN number:   0.22E+00 at (  44,  15,   1)
       Total Heat Release Rate:            529.402 kW
       Radiation Loss to Boundaries:      -357.918 kW
       Mesh    4
       Max CFL number:  0.28E-01 at (   2,  12,  16)
       Max divergence:  0.12E-05 at (  76,  17,  16)
       Min divergence: -0.12E-05 at (  55,  18,  11)
       Max VN number:   0.57E-02 at (  45,   3,   7)
       Mesh    5
       Max CFL number:  0.15E-01 at (  21,   7,   8)
       Max divergence:  0.13E-05 at (  77,  10,  15)
       Min divergence: -0.12E-05 at (  66,  16,   4)
       Max VN number:   0.57E-02 at (  59,  11,   8)
       Mesh    6
       Max CFL number:  0.83E-02 at (  79,  18,   7)
       Max divergence:  0.13E-05 at (  55,   2,   3)
       Min divergence: -0.12E-05 at (  30,   6,  19)
       Max VN number:   0.58E-02 at (  78,  15,   2)
       Mesh    7
       Max CFL number:  0.77E-02 at (  22,  17,   8)
       Max divergence:  0.12E-05 at (  47,  10,  11)
       Min divergence: -0.12E-05 at (  51,  19,   5)
       Max VN number:   0.57E-02 at (  65,   9,   8)
       Mesh    8
       Max CFL number:  0.78E-02 at (  20,  18,  15)
       Max divergence:  0.11E-05 at (  55,  12,  15)
       Min divergence: -0.12E-05 at (  18,   6,  11)
       Max VN number:   0.57E-02 at (  31,  15,  12)
 
       Time Step       8   June 26, 2020  16:17:58
       Step Size:    0.733E-01 s, Total Time:       0.85 s
       Pressure Iterations:      3
       Maximum Velocity Error:  0.44E-01 on Mesh   1 at (  81   8  19)
       Maximum Pressure Error:  0.19E+03 on Mesh   3 at (  45   6   1)
       ---------------------------------------------------------------
       Mesh    1
       Max CFL number:  0.67E-02 at (  54,  16,  12)
       Max divergence:  0.12E-05 at (  54,  16,  14)
       Min divergence: -0.12E-05 at (  17,  18,  10)
       Max VN number:   0.52E-02 at (  79,  19,   8)
       Mesh    2
       Max CFL number:  0.23E-01 at (  77,  13,  15)
       Max divergence:  0.12E-05 at (  12,   3,  16)
       Min divergence: -0.12E-05 at (   4,   2,  16)
       Max VN number:   0.53E-02 at (  70,  13,  14)
       Mesh    3
       Max CFL number:  0.87E+00 at (  41,  15,   1)
       Max divergence:  0.74E+01 at (  43,   6,   1)
       Min divergence: -0.12E+01 at (  50,  15,   2)
       Max VN number:   0.15E+00 at (  41,  15,   1)
       Total Heat Release Rate:            794.259 kW
       Radiation Loss to Boundaries:      -188.530 kW
       Mesh    4
       Max CFL number:  0.26E-01 at (  24,   4,   9)
       Max divergence:  0.12E-05 at (  76,  17,  16)
       Min divergence: -0.12E-05 at (  55,  18,  11)
       Max VN number:   0.51E-02 at (  45,   3,   7)
       Mesh    5
       Max CFL number:  0.15E-01 at (  21,   7,   8)
       Max divergence:  0.13E-05 at (  77,  10,  15)
       Min divergence: -0.12E-05 at (  66,  16,   4)
       Max VN number:   0.51E-02 at (  59,  11,   8)
       Mesh    6
       Max CFL number:  0.80E-02 at (  79,  18,   7)
       Max divergence:  0.13E-05 at (  55,   2,   3)
       Min divergence: -0.12E-05 at (  30,   6,  19)
       Max VN number:   0.52E-02 at (  78,  15,   2)
       Mesh    7
       Max CFL number:  0.69E-02 at (  22,  17,   8)
       Max divergence:  0.12E-05 at (  47,  10,  11)
       Min divergence: -0.12E-05 at (  51,  19,   5)
       Max VN number:   0.51E-02 at (  65,   9,   8)
       Mesh    8
       Max CFL number:  0.70E-02 at (  20,  18,  15)
       Max divergence:  0.11E-05 at (  55,  12,  15)
       Min divergence: -0.12E-05 at (  18,   6,  11)
       Max VN number:   0.51E-02 at (  31,  15,  12)
 
       Time Step       9   June 26, 2020  16:17:58
       Step Size:    0.733E-01 s, Total Time:       0.93 s
       Pressure Iterations:      1
       Maximum Velocity Error:  0.47E-01 on Mesh   1 at (  81  12   1)
       Maximum Pressure Error:  0.23E+03 on Mesh   3 at (  43  15   1)
       ---------------------------------------------------------------
       Mesh    1
       Max CFL number:  0.66E-02 at (  54,  16,  12)
       Max divergence:  0.12E-05 at (  54,  16,  14)
       Min divergence: -0.12E-05 at (  17,  18,  10)
       Max VN number:   0.52E-02 at (  79,  19,   8)
       Mesh    2
       Max CFL number:  0.24E-01 at (  77,  13,  15)
       Max divergence:  0.12E-05 at (  12,   3,  16)
       Min divergence: -0.12E-05 at (   4,   2,  16)
       Max VN number:   0.53E-02 at (  70,  13,  14)
       Mesh    3
       Max CFL number:  0.89E+00 at (  50,   6,   1)
       Max divergence:  0.13E+02 at (  45,  15,   1)
       Min divergence: -0.27E+01 at (  50,   6,   2)
       Max VN number:   0.38E+00 at (  50,   6,   1)
       Total Heat Release Rate:           1001.067 kW
       Radiation Loss to Boundaries:      -371.197 kW
       Mesh    4
       Max CFL number:  0.27E-01 at (  24,   4,   9)
       Max divergence:  0.12E-05 at (  76,  17,  16)
       Min divergence: -0.12E-05 at (  55,  18,  11)
       Max VN number:   0.50E-02 at (  45,   3,   7)
       Mesh    5
       Max CFL number:  0.18E-01 at (  21,   7,   8)
       Max divergence:  0.13E-05 at (  77,  10,  15)
       Min divergence: -0.12E-05 at (  66,  16,   4)
       Max VN number:   0.51E-02 at (  59,  11,   8)
       Mesh    6
       Max CFL number:  0.86E-02 at (  79,  18,   7)
       Max divergence:  0.13E-05 at (  55,   2,   3)
       Min divergence: -0.12E-05 at (  30,   6,  19)
       Max VN number:   0.52E-02 at (  78,  15,   2)
       Mesh    7
       Max CFL number:  0.69E-02 at (  22,  17,   8)
       Max divergence:  0.12E-05 at (  47,  10,  11)
       Min divergence: -0.12E-05 at (  51,  19,   5)
       Max VN number:   0.51E-02 at (  65,   9,   8)
       Mesh    8
       Max CFL number:  0.70E-02 at (  20,  18,  15)
       Max divergence:  0.11E-05 at (  55,  12,  15)
       Min divergence: -0.12E-05 at (  18,   6,  11)
       Max VN number:   0.51E-02 at (  31,  15,  12)
 
       Time Step      10   June 26, 2020  16:17:58
       Step Size:    0.733E-01 s, Total Time:       1.00 s
       Pressure Iterations:      7
       Maximum Velocity Error:  0.48E-01 on Mesh   1 at (  81   9  20)
       Maximum Pressure Error:  0.40E+03 on Mesh   3 at (  45  15   1)
       ---------------------------------------------------------------
       Mesh    1
       Max CFL number:  0.66E-02 at (  54,  16,  12)
       Max divergence:  0.12E-05 at (  54,  16,  14)
       Min divergence: -0.12E-05 at (  17,  18,  10)
       Max VN number:   0.52E-02 at (  79,  19,   8)
       Mesh    2
       Max CFL number:  0.25E-01 at (  77,  13,  15)
       Max divergence:  0.13E-05 at (  12,   3,  16)
       Min divergence: -0.12E-05 at (   4,   2,  16)
       Max VN number:   0.53E-02 at (  70,  13,  14)
       Mesh    3
       Max CFL number:  0.10E+01 at (  46,  15,   1)
       Max divergence:  0.12E+02 at (  50,   6,   1)
       Min divergence: -0.29E+01 at (  44,  15,   2)
       Max VN number:   0.83E+00 at (  45,  15,   1)
       Total Heat Release Rate:           1410.218 kW
       Radiation Loss to Boundaries:      -364.085 kW
       Mesh    4
       Max CFL number:  0.27E-01 at (  24,   4,   9)
       Max divergence:  0.12E-05 at (  76,  17,  16)
       Min divergence: -0.12E-05 at (  55,  18,  11)
       Max VN number:   0.50E-02 at (  45,   3,   7)
       Mesh    5
       Max CFL number:  0.20E-01 at (  21,   7,   8)
       Max divergence:  0.13E-05 at (  77,  10,  15)
       Min divergence: -0.12E-05 at (  66,  16,   4)
       Max VN number:   0.51E-02 at (  59,  11,   8)
       Mesh    6
       Max CFL number:  0.92E-02 at (  79,  18,   7)
       Max divergence:  0.13E-05 at (  55,   2,   3)
       Min divergence: -0.12E-05 at (  30,   6,  19)
       Max VN number:   0.52E-02 at (  78,  15,   2)
       Mesh    7
       Max CFL number:  0.69E-02 at (  22,  17,   8)
       Max divergence:  0.12E-05 at (  47,  10,  11)
       Min divergence: -0.12E-05 at (  51,  19,   5)
       Max VN number:   0.51E-02 at (  65,   9,   8)
       Mesh    8
       Max CFL number:  0.70E-02 at (  20,  18,  15)
       Max divergence:  0.11E-05 at (  55,  12,  15)
       Min divergence: -0.12E-05 at (  18,   6,  11)
       Max VN number:   0.50E-02 at (  31,  15,  12)
 
       Time Step      20   June 26, 2020  16:18:01
       Step Size:    0.332E-01 s, Total Time:       1.42 s
       Pressure Iterations:      6
       Maximum Velocity Error:  0.83E-01 on Mesh   2 at (  81  18  20)
       Maximum Pressure Error:  0.43E+03 on Mesh   3 at (  48  14   1)
       ---------------------------------------------------------------
       Mesh    1
       Max CFL number:  0.30E-02 at (   4,   8,  11)
       Max divergence:  0.12E-05 at (  54,  16,  14)
       Min divergence: -0.12E-05 at (  17,  18,  10)
       Max VN number:   0.24E-02 at (  79,  19,   8)
       Mesh    2
       Max CFL number:  0.14E-01 at (  77,  13,  15)
       Max divergence:  0.54E-04 at (  80,  18,  20)
       Min divergence: -0.12E-05 at (  41,   2,  14)
       Max VN number:   0.42E-02 at (  80,   1,   1)
       Radiation Loss to Boundaries:         0.028 kW
       Mesh    3
       Max CFL number:  0.90E+00 at (  42,  12,   1)
       Max divergence:  0.14E+02 at (  47,  14,   1)
       Min divergence: -0.37E+01 at (  46,   7,   2)
       Max VN number:   0.47E+00 at (  48,  14,   1)
       Total Heat Release Rate:           3336.332 kW
       Radiation Loss to Boundaries:     -1097.625 kW
       Mesh    4
       Max CFL number:  0.23E-01 at (  70,   7,   5)
       Max divergence:  0.15E-03 at (   1,  20,   7)
       Min divergence: -0.12E-05 at (  55,  18,  11)
       Max VN number:   0.77E-02 at (   1,  20,  20)
       Radiation Loss to Boundaries:         0.060 kW
       Mesh    5
       Max CFL number:  0.14E-01 at (  21,   7,   8)
       Max divergence:  0.13E-05 at (  77,  10,  15)
       Min divergence: -0.13E-05 at (  66,  16,   4)
       Max VN number:   0.32E-02 at (   1,   1,   1)
       Mesh    6
       Max CFL number:  0.93E-02 at (  38,   4,  16)
       Max divergence:  0.13E-05 at (  55,   2,   3)
       Min divergence: -0.12E-05 at (  30,   6,  19)
       Max VN number:   0.23E-02 at (  78,  15,   2)
       Mesh    7
       Max CFL number:  0.57E-02 at (  55,   4,   9)
       Max divergence:  0.12E-05 at (  47,  10,  11)
       Min divergence: -0.12E-05 at (  51,  19,   5)
       Max VN number:   0.23E-02 at (  65,   9,   8)
       Mesh    8
       Max CFL number:  0.39E-02 at (  56,  15,  17)
       Max divergence:  0.11E-05 at (  55,  12,  15)
       Min divergence: -0.12E-05 at (  18,   6,  11)
       Max VN number:   0.23E-02 at (  31,  15,  12)
 
       Time Step      30   June 26, 2020  16:18:04
       Step Size:    0.280E-01 s, Total Time:       1.73 s
       Pressure Iterations:      7
       Maximum Velocity Error:  0.12E+00 on Mesh   1 at (  81   9  20)
       Maximum Pressure Error:  0.39E+03 on Mesh   3 at (  48  13   2)
       ---------------------------------------------------------------
       Mesh    1
       Max CFL number:  0.25E-02 at (   4,   8,  11)
       Max divergence:  0.12E-05 at (  54,  16,  14)
       Min divergence: -0.12E-05 at (  17,  18,  10)
       Max VN number:   0.23E-02 at (  79,  11,  15)
       Mesh    2
       Max CFL number:  0.20E-01 at (  23,  15,  15)
       Max divergence:  0.13E-03 at (  80,   1,   9)
       Min divergence: -0.96E-06 at (  11,  17,   3)
       Max VN number:   0.79E-02 at (  80,   1,  20)
       Radiation Loss to Boundaries:         1.091 kW
       Mesh    3
       Max CFL number:  0.90E+00 at (  50,  14,   4)
       Max divergence:  0.11E+02 at (  50,  13,   1)
       Min divergence: -0.19E+01 at (  43,  10,   1)
       Max VN number:   0.30E+00 at (  48,  13,   2)
       Total Heat Release Rate:           5172.493 kW
       Radiation Loss to Boundaries:     -1489.055 kW
       Mesh    4
       Max CFL number:  0.41E-01 at (  32,   4,  19)
       Max divergence:  0.27E-03 at (   1,  20,   8)
       Min divergence: -0.95E-06 at (  58,  17,   7)
       Max VN number:   0.16E-01 at (   1,  20,  20)
       Radiation Loss to Boundaries:         1.553 kW
       Mesh    5
       Max CFL number:  0.29E-01 at (  21,   7,   8)
       Max divergence:  0.13E-05 at (  59,  15,  11)
       Min divergence: -0.13E-05 at (   3,   8,  11)
       Max VN number:   0.11E-01 at (   1,   1,   1)
       Mesh    6
       Max CFL number:  0.19E-01 at (  38,   4,  16)
       Max divergence:  0.13E-05 at (  55,   2,   3)
       Min divergence: -0.12E-05 at (  78,  15,  10)
       Max VN number:   0.62E-02 at (   1,   1,  20)
       Mesh    7
       Max CFL number:  0.13E-01 at (  57,   7,   3)
       Max divergence:  0.12E-05 at (  47,  10,  11)
       Min divergence: -0.12E-05 at (  51,  19,   5)
       Max VN number:   0.32E-02 at (   1,  20,   1)
       Mesh    8
       Max CFL number:  0.11E-01 at (  57,  15,  17)
       Max divergence:  0.11E-05 at (  55,  12,  15)
       Min divergence: -0.12E-05 at (  17,  19,  16)
       Max VN number:   0.19E-02 at (  31,  15,  12)
 
       Time Step      40   June 26, 2020  16:18:08
       Step Size:    0.249E-01 s, Total Time:       1.98 s
       Pressure Iterations:      9
       Maximum Velocity Error:  0.13E+00 on Mesh   2 at (  81  20  20)
       Maximum Pressure Error:  0.38E+03 on Mesh   3 at (  50  11   2)
       ---------------------------------------------------------------
       Mesh    1
       Max CFL number:  0.22E-02 at (   4,   8,  11)
       Max divergence:  0.23E-05 at (  80,   1,  20)
       Min divergence: -0.12E-05 at (  17,  18,  10)
       Max VN number:   0.21E-02 at (  79,  11,  15)
       Radiation Loss to Boundaries:         0.001 kW
       Mesh    2
       Max CFL number:  0.18E-01 at (  23,  15,  15)
       Max divergence:  0.29E-03 at (  80,  18,  11)
       Min divergence: -0.93E-06 at (   3,   6,  12)
       Max VN number:   0.74E-02 at (  80,   1,  20)
       Radiation Loss to Boundaries:         2.281 kW
       Mesh    3
       Max CFL number:  0.88E+00 at (  53,  13,   7)
       Max divergence:  0.20E+02 at (  49,   7,   1)
       Min divergence: -0.49E+01 at (  45,  11,   3)
       Max VN number:   0.31E+00 at (  48,   8,   3)
       Total Heat Release Rate:           7198.445 kW
       Radiation Loss to Boundaries:     -1732.747 kW
       Mesh    4
       Max CFL number:  0.64E-01 at (  32,   4,  19)
       Max divergence:  0.51E-03 at (   1,  10,   9)
       Min divergence: -0.88E-06 at (  74,  15,   7)
       Max VN number:   0.25E-01 at (   1,  20,  20)
       Radiation Loss to Boundaries:         4.120 kW
       Mesh    5
       Max CFL number:  0.53E-01 at (  53,   7,   9)
       Max divergence:  0.47E-05 at (   1,   1,  20)
       Min divergence: -0.13E-05 at (   3,   8,  11)
       Max VN number:   0.20E-01 at (   1,  20,   1)
       Radiation Loss to Boundaries:         0.003 kW
       Mesh    6
       Max CFL number:  0.43E-01 at (  57,  17,  11)
       Max divergence:  0.13E-05 at (  55,   2,   3)
       Min divergence: -0.12E-05 at (  78,  15,  10)
       Max VN number:   0.16E-01 at (   1,   1,  20)
       Mesh    7
       Max CFL number:  0.36E-01 at (  57,   7,   3)
       Max divergence:  0.12E-05 at (  47,  10,  11)
       Min divergence: -0.13E-05 at (  28,  12,  12)
       Max VN number:   0.13E-01 at (   1,  20,   1)
       Mesh    8
       Max CFL number:  0.31E-01 at (  51,   8,  12)
       Max divergence:  0.11E-05 at (  24,   9,  15)
       Min divergence: -0.12E-05 at (  17,  19,  16)
       Max VN number:   0.10E-01 at (   1,   1,  20)
 
       Time Step      50   June 26, 2020  16:18:12
       Step Size:    0.191E-01 s, Total Time:       2.20 s
       Pressure Iterations:      8
       Maximum Velocity Error:  0.12E+00 on Mesh   1 at (  81   1  20)
       Maximum Pressure Error:  0.48E+03 on Mesh   3 at (  42  14   1)
       ---------------------------------------------------------------
       Mesh    1
       Max CFL number:  0.17E-02 at (   4,   8,  11)
       Max divergence:  0.23E-05 at (  80,   1,  20)
       Min divergence: -0.13E-05 at (  17,  18,  10)
       Max VN number:   0.15E-02 at (  79,  11,  15)
       Radiation Loss to Boundaries:         0.002 kW
       Mesh    2
       Max CFL number:  0.13E-01 at (  23,  15,  15)
       Max divergence:  0.30E-03 at (  80,  19,  11)
       Min divergence: -0.93E-06 at (   3,   6,  12)
       Max VN number:   0.51E-02 at (  80,   1,  20)
       Radiation Loss to Boundaries:         2.339 kW
       Mesh    3
       Max CFL number:  0.87E+00 at (  50,  11,   3)
       Max divergence:  0.15E+02 at (  47,  13,   5)
       Min divergence: -0.37E+01 at (  46,  10,   4)
       Max VN number:   0.24E+00 at (  46,   8,   1)
       Total Heat Release Rate:           8684.714 kW
       Radiation Loss to Boundaries:     -2105.020 kW
       Mesh    4
       Max CFL number:  0.80E-01 at (   1,   9,  17)
       Max divergence:  0.54E-03 at (   1,  19,  10)
       Min divergence: -0.96E-06 at (  74,  15,   7)
       Max VN number:   0.30E-01 at (   1,  20,  20)
       Radiation Loss to Boundaries:         4.574 kW
       Mesh    5
       Max CFL number:  0.71E-01 at (   9,  16,  19)
       Max divergence:  0.44E-05 at (   1,   1,  20)
       Min divergence: -0.12E-05 at (  71,   4,   9)
       Max VN number:   0.27E-01 at (   1,  20,   1)
       Radiation Loss to Boundaries:         0.003 kW
       Mesh    6
       Max CFL number:  0.64E-01 at (  59,  19,  15)
       Max divergence:  0.12E-05 at (  21,   4,  14)
       Min divergence: -0.13E-05 at (  27,   2,   9)
       Max VN number:   0.24E-01 at (   1,   1,  20)
       Mesh    7
       Max CFL number:  0.59E-01 at (  57,   7,   3)
       Max divergence:  0.11E-05 at (  52,  20,  16)
       Min divergence: -0.13E-05 at (  28,  12,  12)
       Max VN number:   0.22E-01 at (   1,  20,   1)
       Mesh    8
       Max CFL number:  0.57E-01 at (  51,   8,  12)
       Max divergence:  0.12E-05 at (  17,  18,  18)
       Min divergence: -0.12E-05 at (  14,   2,  17)
       Max VN number:   0.21E-01 at (   1,   1,  20)
 
       Time Step      60   June 26, 2020  16:18:15
       Step Size:    0.170E-01 s, Total Time:       2.39 s
       Pressure Iterations:      7
       Maximum Velocity Error:  0.26E-01 on Mesh   4 at (  81   9  20)
       Maximum Pressure Error:  0.38E+03 on Mesh   3 at (  43  12   1)
       ---------------------------------------------------------------
       Mesh    1
       Max CFL number:  0.15E-02 at (   4,   8,  11)
       Max divergence:  0.28E-05 at (  78,  20,  20)
       Min divergence: -0.13E-05 at (  17,  18,  10)
       Max VN number:   0.11E-02 at (  79,  19,   8)
       Radiation Loss to Boundaries:         0.002 kW
       Mesh    2
       Max CFL number:  0.35E-02 at (  23,  15,  15)
       Max divergence:  0.39E-03 at (  80,   3,  13)
       Min divergence: -0.92E-06 at (   3,   6,  12)
       Max VN number:   0.12E-02 at (  16,   3,  15)
       Radiation Loss to Boundaries:         3.236 kW
       Mesh    3
       Max CFL number:  0.89E+00 at (  50,  12,   5)
       Max divergence:  0.14E+02 at (  51,  11,   6)
       Min divergence: -0.31E+01 at (  52,  10,   7)
       Max VN number:   0.23E+00 at (  49,  12,   9)
       Total Heat Release Rate:          10096.131 kW
       Radiation Loss to Boundaries:     -2884.070 kW
       Mesh    4
       Max CFL number:  0.98E-01 at (   1,  13,  19)
       Max divergence:  0.96E-03 at (   1,   3,  12)
       Min divergence: -0.71E-06 at (  74,  15,   8)
       Max VN number:   0.36E-01 at (   1,  20,  20)
       Radiation Loss to Boundaries:         9.960 kW
       Mesh    5
       Max CFL number:  0.93E-01 at (  69,   8,   9)
       Max divergence:  0.85E-05 at (   1,   1,  20)
       Min divergence: -0.12E-05 at (  44,  18,   3)
       Max VN number:   0.35E-01 at (   1,  20,   1)
       Radiation Loss to Boundaries:         0.007 kW
       Mesh    6
       Max CFL number:  0.93E-01 at (  13,   6,   7)
       Max divergence:  0.14E-05 at (  40,  13,  17)
       Min divergence: -0.14E-05 at (  27,   2,   9)
       Max VN number:   0.34E-01 at (  12,  20,  20)
       Mesh    7
       Max CFL number:  0.92E-01 at (  57,   7,   3)
       Max divergence:  0.14E-05 at (  14,  15,   6)
       Min divergence: -0.12E-05 at (  78,   4,  10)
       Max VN number:   0.34E-01 at (   1,  20,   1)
       Mesh    8
       Max CFL number:  0.90E-01 at (  54,   2,  11)
       Max divergence:  0.13E-05 at (  17,  18,  18)
       Min divergence: -0.12E-05 at (  14,   2,  17)
       Max VN number:   0.33E-01 at (  57,  20,   1)
 
       Time Step      70   June 26, 2020  16:18:18
       Step Size:    0.129E-01 s, Total Time:       2.53 s
       Pressure Iterations:      7
       Maximum Velocity Error:  0.29E-01 on Mesh   3 at (  81  20  20)
       Maximum Pressure Error:  0.41E+03 on Mesh   3 at (  43  14   1)
       ---------------------------------------------------------------
       Mesh    1
       Max CFL number:  0.12E-02 at (   4,   8,  11)
       Max divergence:  0.27E-05 at (  80,   1,  20)
       Min divergence: -0.13E-05 at (  17,  18,  10)
       Max VN number:   0.86E-03 at (  62,   6,  15)
       Radiation Loss to Boundaries:         0.002 kW
       Mesh    2
       Max CFL number:  0.28E-02 at (  68,  17,   3)
       Max divergence:  0.41E-03 at (  80,  18,  16)
       Min divergence: -0.90E-06 at (   3,   6,  12)
       Max VN number:   0.90E-03 at (  16,   3,  15)
       Radiation Loss to Boundaries:         3.538 kW
       Mesh    3
       Max CFL number:  0.87E+00 at (  49,   9,   7)
       Max divergence:  0.15E+02 at (  48,   7,   1)
       Min divergence: -0.27E+01 at (  46,  12,   2)
       Max VN number:   0.17E+00 at (  48,   9,  11)
       Total Heat Release Rate:          10025.526 kW
       Radiation Loss to Boundaries:     -2313.199 kW
       Mesh    4
       Max CFL number:  0.93E-01 at (   1,  16,  19)
       Max divergence:  0.15E-02 at (   1,  11,   3)
       Min divergence: -0.60E-06 at (  80,   8,   7)
       Max VN number:   0.34E-01 at (   2,  20,  20)
       Radiation Loss to Boundaries:        17.271 kW
       Mesh    5
       Max CFL number:  0.91E-01 at (  77,   3,   7)
       Max divergence:  0.11E-04 at (   1,   1,  20)
       Min divergence: -0.13E-05 at (  52,   9,  14)
       Max VN number:   0.34E-01 at (  80,  20,   1)
       Radiation Loss to Boundaries:         0.010 kW
       Mesh    6
       Max CFL number:  0.92E-01 at (  13,   6,   7)
       Max divergence:  0.13E-05 at (   7,  14,   7)
       Min divergence: -0.12E-05 at (  73,   3,  14)
       Max VN number:   0.34E-01 at (  80,   1,  20)
       Mesh    7
       Max CFL number:  0.93E-01 at (  15,   5,  16)
       Max divergence:  0.14E-05 at (  14,  15,   6)
       Min divergence: -0.12E-05 at (  42,  14,  18)
       Max VN number:   0.34E-01 at (  31,  20,  20)
       Mesh    8
       Max CFL number:  0.94E-01 at (   5,   3,  11)
       Max divergence:  0.12E-05 at (  20,   8,  18)
       Min divergence: -0.12E-05 at (  49,   8,  19)
       Max VN number:   0.35E-01 at (  57,  20,   1)
 
       Time Step      80   June 26, 2020  16:18:20
       Step Size:    0.142E-01 s, Total Time:       2.66 s
       Pressure Iterations:      8
       Maximum Velocity Error:  0.13E+00 on Mesh   1 at (  81  17   5)
       Maximum Pressure Error:  0.26E+03 on Mesh   3 at (  49  14   1)
       ---------------------------------------------------------------
       Mesh    1
       Max CFL number:  0.13E-02 at (   4,   8,  11)
       Max divergence:  0.27E-05 at (  80,   1,  20)
       Min divergence: -0.13E-05 at (  17,  18,  10)
       Max VN number:   0.12E-02 at (  79,  16,  18)
       Radiation Loss to Boundaries:         0.002 kW
       Mesh    2
       Max CFL number:  0.10E-01 at (  68,  17,   3)
       Max divergence:  0.41E-03 at (  80,  18,  16)
       Min divergence: -0.90E-06 at (   3,   6,  12)
       Max VN number:   0.41E-02 at (  80,  20,   1)
       Radiation Loss to Boundaries:         3.572 kW
       Mesh    3
       Max CFL number:  0.83E+00 at (  49,   9,  10)
       Max divergence:  0.17E+02 at (  52,  11,   1)
       Min divergence: -0.28E+01 at (  47,   7,   1)
       Max VN number:   0.23E+00 at (  54,  10,  15)
       Total Heat Release Rate:           8674.486 kW
       Radiation Loss to Boundaries:     -2043.568 kW
       Mesh    4
       Max CFL number:  0.11E+00 at (   1,  11,  19)
       Max divergence:  0.16E-02 at (   1,  11,  12)
       Min divergence: -0.65E-06 at (  80,  16,   8)
       Max VN number:   0.42E-01 at (   2,  20,  20)
       Radiation Loss to Boundaries:        18.881 kW
       Mesh    5
       Max CFL number:  0.12E+00 at (  63,   9,  15)
       Max divergence:  0.10E-04 at (   1,   1,  20)
       Min divergence: -0.12E-05 at (  37,   3,  10)
       Max VN number:   0.43E-01 at (  80,   1,  20)
       Radiation Loss to Boundaries:         0.010 kW
       Mesh    6
       Max CFL number:  0.12E+00 at (  72,  14,  10)
       Max divergence:  0.12E-05 at (  46,   8,   7)
       Min divergence: -0.14E-05 at (  11,   7,  12)
       Max VN number:   0.45E-01 at (  80,   1,  20)
       Mesh    7
       Max CFL number:  0.12E+00 at (  15,   5,  16)
       Max divergence:  0.14E-05 at (  44,  10,   8)
       Min divergence: -0.13E-05 at (  65,  14,   5)
       Max VN number:   0.46E-01 at (  23,   1,  20)
       Mesh    8
       Max CFL number:  0.12E+00 at (  64,  10,   5)
       Max divergence:  0.13E-05 at (  54,  19,   9)
       Min divergence: -0.14E-05 at (   6,   4,   6)
       Max VN number:   0.46E-01 at (  58,  20,   1)
 
       Time Step      90   June 26, 2020  16:18:23
       Step Size:    0.142E-01 s, Total Time:       2.80 s
       Pressure Iterations:      6
       Maximum Velocity Error:  0.18E+00 on Mesh   1 at (  81  15  19)
       Maximum Pressure Error:  0.37E+03 on Mesh   3 at (  44   7   1)
       ---------------------------------------------------------------
       Mesh    1
       Max CFL number:  0.13E-02 at (   4,   8,  11)
       Max divergence:  0.21E-05 at (  78,  20,  20)
       Min divergence: -0.13E-05 at (  17,  18,  10)
       Max VN number:   0.14E-02 at (  79,  16,  18)
       Radiation Loss to Boundaries:         0.002 kW
       Mesh    2
       Max CFL number:  0.13E-01 at (  68,  17,   3)
       Max divergence:  0.44E-03 at (  80,   2,  20)
       Min divergence: -0.87E-06 at (   3,   6,  12)
       Max VN number:   0.66E-02 at (  80,  20,   1)
       Radiation Loss to Boundaries:         3.620 kW
       Mesh    3
       Max CFL number:  0.89E+00 at (  53,  13,   9)
       Max divergence:  0.14E+02 at (  52,  12,   3)
       Min divergence: -0.76E+01 at (  60,  10,  16)
       Max VN number:   0.27E+00 at (  59,  10,  16)
       Total Heat Release Rate:           7766.652 kW
       Radiation Loss to Boundaries:     -1600.399 kW
       Mesh    4
       Max CFL number:  0.12E+00 at (   1,  12,  19)
       Max divergence:  0.21E-02 at (   1,  10,   6)
       Min divergence: -0.38E-06 at (  80,  16,   8)
       Max VN number:   0.44E-01 at (   2,   1,  20)
       Radiation Loss to Boundaries:        24.956 kW
       Mesh    5
       Max CFL number:  0.12E+00 at (  65,  18,  17)
       Max divergence:  0.12E-04 at (   1,   1,  20)
       Min divergence: -0.12E-05 at (  52,   3,   7)
       Max VN number:   0.45E-01 at (  80,   1,  20)
       Radiation Loss to Boundaries:         0.014 kW
       Mesh    6
       Max CFL number:  0.13E+00 at (  10,   9,  12)
       Max divergence:  0.11E-05 at (   4,   9,  13)
       Min divergence: -0.12E-05 at (  80,  13,   8)
       Max VN number:   0.48E-01 at (  80,  20,  20)
       Mesh    7
       Max CFL number:  0.13E+00 at (  36,  16,  18)
       Max divergence:  0.14E-05 at (   9,   4,   7)
       Min divergence: -0.12E-05 at (  71,   8,   5)
       Max VN number:   0.50E-01 at (  80,  20,  20)
       Mesh    8
       Max CFL number:  0.14E+00 at (  25,   9,   2)
       Max divergence:  0.13E-05 at (  19,   6,  17)
       Min divergence: -0.12E-05 at (   3,  11,  10)
       Max VN number:   0.51E-01 at (  39,   1,  20)
 
       Time Step     100   June 26, 2020  16:18:26
       Step Size:    0.126E-01 s, Total Time:       2.94 s
       Pressure Iterations:      5
       Maximum Velocity Error:  0.13E+00 on Mesh   1 at (  81   3  20)
       Maximum Pressure Error:  0.23E+03 on Mesh   3 at (  52  14  11)
       ---------------------------------------------------------------
       Mesh    1
       Max CFL number:  0.11E-02 at (   4,   8,  11)
       Max divergence:  0.19E-05 at (  78,  20,  20)
       Min divergence: -0.13E-05 at (  17,  18,  10)
       Max VN number:   0.11E-02 at (  79,  16,  18)
       Radiation Loss to Boundaries:         0.002 kW
       Mesh    2
       Max CFL number:  0.89E-02 at (  75,  13,   5)
       Max divergence:  0.32E-03 at (  80,   2,  20)
       Min divergence: -0.86E-06 at (   3,  17,  10)
       Max VN number:   0.42E-02 at (  80,  20,   1)
       Radiation Loss to Boundaries:         3.430 kW
       Mesh    3
       Max CFL number:  0.89E+00 at (  52,   7,  12)
       Max divergence:  0.15E+02 at (  53,  10,   3)
       Min divergence: -0.28E+01 at (  43,   7,   1)
       Max VN number:   0.20E+00 at (  63,  10,  18)
       Total Heat Release Rate:           8423.025 kW
       Radiation Loss to Boundaries:     -1648.841 kW
       Mesh    4
       Max CFL number:  0.11E+00 at (   1,  10,  19)
       Max divergence:  0.22E-02 at (   1,  13,   9)
       Min divergence: -0.14E-06 at (  80,  18,  12)
       Max VN number:   0.40E-01 at (   2,   1,  20)
       Radiation Loss to Boundaries:        26.949 kW
       Mesh    5
       Max CFL number:  0.10E+00 at (  51,   3,   8)
       Max divergence:  0.95E-05 at (   1,  20,  20)
       Min divergence: -0.12E-05 at (  22,   3,  13)
       Max VN number:   0.40E-01 at (  80,   1,   1)
       Radiation Loss to Boundaries:         0.018 kW
       Mesh    6
       Max CFL number:  0.11E+00 at (  80,   4,  12)
       Max divergence:  0.12E-05 at (   3,   8,   3)
       Min divergence: -0.14E-05 at (  14,   7,   7)
       Max VN number:   0.42E-01 at (  80,  20,  20)
       Mesh    7
       Max CFL number:  0.11E+00 at (  25,   3,  17)
       Max divergence:  0.14E-05 at (   9,  19,  10)
       Min divergence: -0.12E-05 at (   9,  13,  18)
       Max VN number:   0.43E-01 at (  80,  20,   1)
       Mesh    8
       Max CFL number:  0.12E+00 at (  44,   9,   3)
       Max divergence:  0.12E-05 at (  53,   5,   6)
       Min divergence: -0.14E-05 at (  69,   6,  13)
       Max VN number:   0.44E-01 at (  52,   1,   1)
 
       Time Step     200   June 26, 2020  16:18:59
       Step Size:    0.111E-01 s, Total Time:       4.23 s
       Pressure Iterations:      7
       Maximum Velocity Error:  0.30E+00 on Mesh   3 at (  81  13  14)
       Maximum Pressure Error:  0.61E+03 on Mesh   3 at (  52   9   1)
       ---------------------------------------------------------------
       Mesh    1
       Max CFL number:  0.10E-02 at (   4,   8,  11)
       Max divergence:  0.23E-05 at (  78,  20,  20)
       Min divergence: -0.12E-05 at (  17,  18,  10)
       Max VN number:   0.10E-02 at (  79,  16,  18)
       Radiation Loss to Boundaries:         0.003 kW
       Mesh    2
       Max CFL number:  0.10E-01 at (  80,   2,   1)
       Max divergence:  0.39E-03 at (  80,  19,   1)
       Min divergence: -0.82E-06 at (   3,   6,  12)
       Max VN number:   0.46E-02 at (  80,  20,   1)
       Radiation Loss to Boundaries:         4.469 kW
       Mesh    3
       Max CFL number:  0.89E+00 at (  57,  11,  13)
       Max divergence:  0.12E+02 at (  46,  15,   1)
       Min divergence: -0.33E+01 at (  48,  13,   6)
       Max VN number:   0.37E+00 at (  58,  12,  17)
       Total Heat Release Rate:           8485.937 kW
       Radiation Loss to Boundaries:     -2027.957 kW
       Mesh    4
       Max CFL number:  0.53E+00 at (   1,  18,  20)
       Max divergence:  0.73E+00 at (   2,  19,  20)
       Min divergence: -0.58E+00 at (   3,   1,  17)
       Max VN number:   0.17E+00 at (   1,   1,  20)
       Total Heat Release Rate:              0.170 kW
       Radiation Loss to Boundaries:       -17.993 kW
       Mesh    5
       Max CFL number:  0.91E-01 at (  28,   7,  14)
       Max divergence:  0.11E-04 at (   1,  19,   2)
       Min divergence: -0.12E-05 at (  16,  17,  13)
       Max VN number:   0.33E-01 at (  80,   1,  20)
       Radiation Loss to Boundaries:         0.033 kW
       Mesh    6
       Max CFL number:  0.96E-01 at (  26,   6,  10)
       Max divergence:  0.13E-05 at (  41,   6,  14)
       Min divergence: -0.12E-05 at (  70,   8,   9)
       Max VN number:   0.35E-01 at (  80,  20,  20)
       Mesh    7
       Max CFL number:  0.10E+00 at (  20,  17,  11)
       Max divergence:  0.14E-05 at (   5,  14,   7)
       Min divergence: -0.13E-05 at (  10,  10,  10)
       Max VN number:   0.36E-01 at (  80,   1,  20)
       Mesh    8
       Max CFL number:  0.10E+00 at (  48,  13,  12)
       Max divergence:  0.12E-05 at (  21,   7,   8)
       Min divergence: -0.12E-05 at (  50,   6,  10)
       Max VN number:   0.37E-01 at (  49,  20,  20)
 
       Time Step     300   June 26, 2020  16:19:26
       Step Size:    0.130E-01 s, Total Time:       5.45 s
       Pressure Iterations:     10
       Maximum Velocity Error:  0.47E+00 on Mesh   3 at (  81   1  20)
       Maximum Pressure Error:  0.71E+03 on Mesh   3 at (  43   7   1)
       ---------------------------------------------------------------
       Mesh    1
       Max CFL number:  0.12E-02 at (   4,   8,  11)
       Max divergence:  0.20E-05 at (  78,  20,  20)
       Min divergence: -0.12E-05 at (  17,  18,  10)
       Max VN number:   0.11E-02 at (  79,  11,  15)
       Radiation Loss to Boundaries:         0.003 kW
       Mesh    2
       Max CFL number:  0.17E-01 at (  80,  19,  20)
       Max divergence:  0.31E-03 at (  80,  19,  13)
       Min divergence: -0.81E-06 at (   3,   6,  12)
       Max VN number:   0.75E-02 at (  80,  20,  20)
       Radiation Loss to Boundaries:         2.974 kW
       Mesh    3
       Max CFL number:  0.84E+00 at (  72,   9,  20)
       Max divergence:  0.16E+02 at (  47,   6,   1)
       Min divergence: -0.39E+01 at (  73,   1,  19)
       Max VN number:   0.46E+00 at (  72,   1,  20)
       Total Heat Release Rate:           7897.429 kW
       Radiation Loss to Boundaries:     -2026.673 kW
       Mesh    4
       Max CFL number:  0.64E+00 at (   1,  20,  20)
       Max divergence:  0.72E+00 at (  29,  20,  20)
       Min divergence: -0.91E+00 at (   4,   2,  12)
       Max VN number:   0.23E+00 at (   1,  20,  20)
       Total Heat Release Rate:              8.682 kW
       Radiation Loss to Boundaries:      -262.060 kW
       Mesh    5
       Max CFL number:  0.24E-01 at (  54,   3,   5)
       Max divergence:  0.29E-04 at (   1,  20,   1)
       Min divergence: -0.12E-05 at (  65,   5,  11)
       Max VN number:   0.74E-02 at (   1,   1,  20)
       Radiation Loss to Boundaries:         0.203 kW
       Mesh    6
       Max CFL number:  0.17E-01 at (  60,  13,   7)
       Max divergence:  0.13E-05 at (  22,  18,  17)
       Min divergence: -0.13E-05 at (  80,   9,   5)
       Max VN number:   0.42E-02 at (   1,   1,  11)
       Mesh    7
       Max CFL number:  0.12E-01 at (   8,  14,  14)
       Max divergence:  0.13E-05 at (  57,   5,   7)
       Min divergence: -0.13E-05 at (  42,  16,   7)
       Max VN number:   0.21E-02 at (   1,  20,   9)
       Mesh    8
       Max CFL number:  0.97E-02 at (  62,  15,   7)
       Max divergence:  0.12E-05 at (  26,  16,   8)
       Min divergence: -0.12E-05 at (  41,  14,  15)
       Max VN number:   0.16E-02 at (  11,   2,  19)
 
       Time Step     400   June 26, 2020  16:19:55
       Step Size:    0.141E-01 s, Total Time:       6.70 s
       Pressure Iterations:      5
       Maximum Velocity Error:  0.69E+00 on Mesh   3 at (  81   2  19)
       Maximum Pressure Error:  0.98E+03 on Mesh   3 at (  51  12   1)
       ---------------------------------------------------------------
       Mesh    1
       Max CFL number:  0.12E-02 at (   4,   8,  11)
       Max divergence:  0.28E-05 at (  79,  20,   1)
       Min divergence: -0.12E-05 at (  17,  18,  10)
       Max VN number:   0.26E-02 at (  80,  12,   1)
       Radiation Loss to Boundaries:         0.006 kW
       Mesh    2
       Max CFL number:  0.15E+00 at (  80,  20,  20)
       Max divergence:  0.10E+00 at (  80,  19,  20)
       Min divergence: -0.73E-06 at (   5,   6,  17)
       Max VN number:   0.59E-01 at (  80,  20,  20)
       Radiation Loss to Boundaries:         3.151 kW
       Mesh    3
       Max CFL number:  0.86E+00 at (  51,   9,  11)
       Max divergence:  0.12E+02 at (  52,  11,   1)
       Min divergence: -0.23E+01 at (  50,  10,  12)
       Max VN number:   0.40E+00 at (  56,   9,  20)
       Total Heat Release Rate:           7176.932 kW
       Radiation Loss to Boundaries:     -1830.532 kW
       Mesh    4
       Max CFL number:  0.62E+00 at (   1,   1,  19)
       Max divergence:  0.11E+01 at (  41,  18,  14)
       Min divergence: -0.96E+00 at (   3,   8,  20)
       Max VN number:   0.22E+00 at (   2,  20,  20)
       Total Heat Release Rate:             32.620 kW
       Radiation Loss to Boundaries:      -266.789 kW
       Mesh    5
       Max CFL number:  0.25E-01 at (   3,  20,   1)
       Max divergence:  0.45E-04 at (   1,  10,   9)
       Min divergence: -0.10E-05 at (  60,   6,  16)
       Max VN number:   0.10E-01 at (  80,   1,  20)
       Radiation Loss to Boundaries:         0.468 kW
       Mesh    6
       Max CFL number:  0.36E-01 at (  79,   1,  20)
       Max divergence:  0.11E-05 at (  36,  10,   9)
       Min divergence: -0.11E-05 at (  20,   9,  17)
       Max VN number:   0.14E-01 at (  80,   1,  20)
       Mesh    7
       Max CFL number:  0.44E-01 at (  80,  20,   1)
       Max divergence:  0.12E-05 at (  57,  14,  15)
       Min divergence: -0.12E-05 at (  29,  12,  12)
       Max VN number:   0.17E-01 at (  80,  20,   1)
       Mesh    8
       Max CFL number:  0.48E-01 at (  39,   1,  20)
       Max divergence:  0.11E-05 at (  24,  14,   6)
       Min divergence: -0.13E-05 at (  16,   6,  11)
       Max VN number:   0.18E-01 at (  38,   1,  20)
 
       Time Step     500   June 26, 2020  16:20:24
       Step Size:    0.127E-01 s, Total Time:       7.92 s
       Pressure Iterations:      9
       Maximum Velocity Error:  0.12E+00 on Mesh   3 at (  81   1   1)
       Maximum Pressure Error:  0.23E+03 on Mesh   3 at (  50   1  20)
       ---------------------------------------------------------------
       Mesh    1
       Max CFL number:  0.11E-02 at (   4,   8,  11)
       Max divergence:  0.29E-05 at (  80,   1,   1)
       Min divergence: -0.12E-05 at (  17,  18,  10)
       Max VN number:   0.89E-03 at (  79,  19,   8)
       Radiation Loss to Boundaries:         0.009 kW
       Mesh    2
       Max CFL number:  0.19E+00 at (  80,  19,  20)
       Max divergence:  0.14E+00 at (  75,   7,  20)
       Min divergence: -0.15E+00 at (  75,  20,  17)
       Max VN number:   0.76E-01 at (  79,  20,  20)
       Radiation Loss to Boundaries:        -1.353 kW
       Mesh    3
       Max CFL number:  0.86E+00 at (  52,   7,  12)
       Max divergence:  0.28E+02 at (  53,   8,   1)
       Min divergence: -0.29E+01 at (  54,   8,   6)
       Max VN number:   0.44E+00 at (  54,   7,  20)
       Total Heat Release Rate:           8110.484 kW
       Radiation Loss to Boundaries:     -2081.078 kW
       Mesh    4
       Max CFL number:  0.66E+00 at (  22,   1,  18)
       Max divergence:  0.15E+01 at (   5,   1,  15)
       Min divergence: -0.13E+01 at (   9,   1,  18)
       Max VN number:   0.25E+00 at (   8,   1,  17)
       Total Heat Release Rate:             28.590 kW
       Radiation Loss to Boundaries:      -269.800 kW
       Mesh    5
       Max CFL number:  0.53E-01 at (   1,  17,  19)
       Max divergence:  0.70E-04 at (   1,  11,  14)
       Min divergence: -0.85E-06 at (  69,  10,  13)
       Max VN number:   0.19E-01 at (   1,  20,  20)
       Radiation Loss to Boundaries:         1.064 kW
       Mesh    6
       Max CFL number:  0.31E-01 at (  43,   7,   7)
       Max divergence:  0.18E-05 at (   1,   1,   1)
       Min divergence: -0.11E-05 at (  17,  11,  18)
       Max VN number:   0.10E-01 at (   1,   1,   1)
       Radiation Loss to Boundaries:         0.003 kW
       Mesh    7
       Max CFL number:  0.29E-01 at (  73,   4,  11)
       Max divergence:  0.12E-05 at (  62,  12,  16)
       Min divergence: -0.12E-05 at (  15,  12,  12)
       Max VN number:   0.95E-02 at (   1,  20,   1)
       Mesh    8
       Max CFL number:  0.28E-01 at (  26,   9,  15)
       Max divergence:  0.12E-05 at (   7,   6,  17)
       Min divergence: -0.14E-05 at (  34,   9,   7)
       Max VN number:   0.89E-02 at (   1,  20,   1)
 
       Time Step     600   June 26, 2020  16:20:52
       Step Size:    0.116E-01 s, Total Time:       9.16 s
       Pressure Iterations:     10
       Maximum Velocity Error:  0.14E+00 on Mesh   3 at (  81  12  20)
       Maximum Pressure Error:  0.37E+03 on Mesh   3 at (  43   7   1)
       ---------------------------------------------------------------
       Mesh    1
       Max CFL number:  0.10E-02 at (   4,   8,  11)
       Max divergence:  0.34E-05 at (  80,   1,   1)
       Min divergence: -0.12E-05 at (  17,  18,  10)
       Max VN number:   0.69E-03 at (  79,  16,  18)
       Radiation Loss to Boundaries:         0.016 kW
       Mesh    2
       Max CFL number:  0.19E+00 at (  72,  18,  20)
       Max divergence:  0.12E+00 at (  63,   7,  20)
       Min divergence: -0.15E+00 at (  64,   8,  20)
       Max VN number:   0.66E-01 at (  76,  20,  20)
       Radiation Loss to Boundaries:        -9.761 kW
       Mesh    3
       Max CFL number:  0.90E+00 at (  55,   8,  15)
       Max divergence:  0.12E+02 at (  43,   6,   1)
       Min divergence: -0.31E+01 at (  58,  11,  17)
       Max VN number:   0.28E+00 at (  59,   9,  20)
       Total Heat Release Rate:           8857.775 kW
       Radiation Loss to Boundaries:     -2299.401 kW
       Mesh    4
       Max CFL number:  0.67E+00 at (   1,   8,  20)
       Max divergence:  0.76E+00 at (   2,   8,  20)
       Min divergence: -0.11E+01 at (   2,  18,  20)
       Max VN number:   0.20E+00 at (  38,  20,  20)
       Total Heat Release Rate:              0.320 kW
       Radiation Loss to Boundaries:      -234.408 kW
       Mesh    5
       Max CFL number:  0.40E+00 at (   1,   4,  19)
       Max divergence:  0.27E+00 at (   4,   5,  20)
       Min divergence: -0.36E+00 at (   3,   1,  19)
       Max VN number:   0.12E+00 at (   1,   1,  20)
       Radiation Loss to Boundaries:       -23.378 kW
       Mesh    6
       Max CFL number:  0.68E-01 at (   9,  12,   8)
       Max divergence:  0.40E-05 at (   2,   3,   2)
       Min divergence: -0.11E-05 at (  33,  14,  10)
       Max VN number:   0.24E-01 at (  80,  20,  20)
       Radiation Loss to Boundaries:         0.013 kW
       Mesh    7
       Max CFL number:  0.70E-01 at (  74,  18,   7)
       Max divergence:  0.13E-05 at (  14,   4,   6)
       Min divergence: -0.12E-05 at (  60,   4,   5)
       Max VN number:   0.24E-01 at (  80,  20,   1)
       Mesh    8
       Max CFL number:  0.71E-01 at (  17,  16,   3)
       Max divergence:  0.12E-05 at (  42,   6,  18)
       Min divergence: -0.12E-05 at (  25,   6,   6)
       Max VN number:   0.25E-01 at (  79,   1,  20)
 
       Time Step     700   June 26, 2020  16:21:20
       Step Size:    0.114E-01 s, Total Time:      10.33 s
       Pressure Iterations:     10
       Maximum Velocity Error:  0.20E+00 on Mesh   3 at (  81  20  20)
       Maximum Pressure Error:  0.46E+03 on Mesh   3 at (  43   9   1)
       ---------------------------------------------------------------
       Mesh    1
       Max CFL number:  0.98E-03 at (   4,   8,  11)
       Max divergence:  0.38E-05 at (  79,  20,   1)
       Min divergence: -0.12E-05 at (  17,  18,  10)
       Max VN number:   0.76E-03 at (  79,  16,  18)
       Radiation Loss to Boundaries:         0.024 kW
       Mesh    2
       Max CFL number:  0.15E+00 at (  61,  16,  20)
       Max divergence:  0.12E+00 at (  55,   5,  20)
       Min divergence: -0.11E+00 at (  55,   8,  20)
       Max VN number:   0.48E-01 at (  74,   1,  20)
       Radiation Loss to Boundaries:       -17.828 kW
       Mesh    3
       Max CFL number:  0.77E+00 at (  76,  11,  20)
       Max divergence:  0.12E+02 at (  50,  13,   1)
       Min divergence: -0.36E+01 at (  48,   8,   1)
       Max VN number:   0.37E+00 at (  65,   1,  20)
       Total Heat Release Rate:           7689.590 kW
       Radiation Loss to Boundaries:     -2183.958 kW
       Mesh    4
       Max CFL number:  0.71E+00 at (   1,  17,  20)
       Max divergence:  0.15E+01 at (   9,   1,  16)
       Min divergence: -0.12E+01 at (   9,   1,  17)
       Max VN number:   0.24E+00 at (  10,  20,  12)
       Total Heat Release Rate:              2.046 kW
       Radiation Loss to Boundaries:      -297.660 kW
       Mesh    5
       Max CFL number:  0.40E+00 at (   6,  12,  17)
       Max divergence:  0.40E+00 at (  21,   1,  16)
       Min divergence: -0.30E+00 at (  21,   2,  19)
       Max VN number:   0.12E+00 at (  15,   1,  11)
       Radiation Loss to Boundaries:       -76.229 kW
       Mesh    6
       Max CFL number:  0.65E-01 at (  45,  11,   7)
       Max divergence:  0.65E-05 at (   2,  18,   4)
       Min divergence: -0.11E-05 at (  44,  10,  12)
       Max VN number:   0.22E-01 at (  80,   1,  20)
       Radiation Loss to Boundaries:         0.046 kW
       Mesh    7
       Max CFL number:  0.67E-01 at (  50,  16,  16)
       Max divergence:  0.12E-05 at (  48,  14,  15)
       Min divergence: -0.11E-05 at (  42,   8,  15)
       Max VN number:   0.23E-01 at (  80,  20,  20)
       Mesh    8
       Max CFL number:  0.68E-01 at (  44,  16,   7)
       Max divergence:  0.11E-05 at (  30,  18,  13)
       Min divergence: -0.11E-05 at (  28,   6,  10)
       Max VN number:   0.23E-01 at (   4,   1,   1)
 
       Time Step     800   June 26, 2020  16:21:46
       Step Size:    0.133E-01 s, Total Time:      11.58 s
       Pressure Iterations:      6
       Maximum Velocity Error:  0.82E-01 on Mesh   3 at (  81  19  18)
       Maximum Pressure Error:  0.39E+03 on Mesh   3 at (  43   8   1)
       ---------------------------------------------------------------
       Mesh    1
       Max CFL number:  0.11E-02 at (   4,   8,  11)
       Max divergence:  0.44E-05 at (  80,   1,   1)
       Min divergence: -0.11E-05 at (  17,  18,  10)
       Max VN number:   0.76E-03 at (  22,  15,   2)
       Radiation Loss to Boundaries:         0.033 kW
       Mesh    2
       Max CFL number:  0.15E+00 at (  50,  15,  19)
       Max divergence:  0.11E+00 at (  46,  14,  20)
       Min divergence: -0.14E+00 at (  46,  17,  20)
       Max VN number:   0.50E-01 at (  60,   1,  20)
       Radiation Loss to Boundaries:       -23.444 kW
       Mesh    3
       Max CFL number:  0.87E+00 at (  58,  14,  20)
       Max divergence:  0.12E+02 at (  45,   6,   1)
       Min divergence: -0.28E+01 at (  49,  10,   5)
       Max VN number:   0.43E+00 at (  51,  12,  20)
       Total Heat Release Rate:           7648.711 kW
       Radiation Loss to Boundaries:     -2000.468 kW
       Mesh    4
       Max CFL number:  0.79E+00 at (   4,  20,  17)
       Max divergence:  0.13E+01 at (  11,  20,  14)
       Min divergence: -0.14E+01 at (  12,  20,  16)
       Max VN number:   0.25E+00 at (   2,  20,  11)
       Total Heat Release Rate:              1.913 kW
       Radiation Loss to Boundaries:      -286.151 kW
       Mesh    5
       Max CFL number:  0.54E+00 at (   5,  18,  18)
       Max divergence:  0.40E+00 at (  12,  18,  20)
       Min divergence: -0.32E+00 at (  26,   6,  10)
       Max VN number:   0.18E+00 at (   1,  20,  20)
       Radiation Loss to Boundaries:      -112.202 kW
       Mesh    6
       Max CFL number:  0.55E-01 at (  37,  16,   9)
       Max divergence:  0.11E-04 at (   1,  11,   6)
       Min divergence: -0.99E-06 at (  68,  13,   8)
       Max VN number:   0.18E-01 at (   2,   1,  20)
       Radiation Loss to Boundaries:         0.111 kW
       Mesh    7
       Max CFL number:  0.54E-01 at (  16,   5,  14)
       Max divergence:  0.11E-05 at (  61,  15,  14)
       Min divergence: -0.13E-05 at (  68,  16,  10)
       Max VN number:   0.18E-01 at (   1,   1,   1)
       Mesh    8
       Max CFL number:  0.54E-01 at (  14,  16,   3)
       Max divergence:  0.96E-06 at (  21,   6,   9)
       Min divergence: -0.11E-05 at (  18,  14,   5)
       Max VN number:   0.17E-01 at (   1,  20,  20)
 
       Time Step     900   June 26, 2020  16:22:13
       Step Size:    0.138E-01 s, Total Time:      12.82 s
       Pressure Iterations:     10
       Maximum Velocity Error:  0.11E+00 on Mesh   3 at (  81   1  20)
       Maximum Pressure Error:  0.26E+03 on Mesh   3 at (  50  10   1)
       ---------------------------------------------------------------
       Mesh    1
       Max CFL number:  0.11E-02 at (   4,   8,  11)
       Max divergence:  0.50E-05 at (  80,   1,   1)
       Min divergence: -0.11E-05 at (  17,  18,  10)
       Max VN number:   0.77E-03 at (  22,  15,   2)
       Radiation Loss to Boundaries:         0.044 kW
       Mesh    2
       Max CFL number:  0.14E+00 at (  42,  16,  19)
       Max divergence:  0.86E-01 at (  38,  13,  20)
       Min divergence: -0.94E-01 at (  39,  18,  20)
       Max VN number:   0.49E-01 at (  42,  20,  18)
       Radiation Loss to Boundaries:       -26.796 kW
       Mesh    3
       Max CFL number:  0.87E+00 at (  70,  13,  20)
       Max divergence:  0.18E+02 at (  48,  15,   1)
       Min divergence: -0.26E+01 at (  78,   2,  19)
       Max VN number:   0.42E+00 at (  59,  15,  20)
       Total Heat Release Rate:           8225.796 kW
       Radiation Loss to Boundaries:     -2078.446 kW
       Mesh    4
       Max CFL number:  0.82E+00 at (  12,  20,  20)
       Max divergence:  0.14E+01 at (   9,  20,  16)
       Min divergence: -0.20E+01 at (   7,  20,  17)
       Max VN number:   0.30E+00 at (  12,  20,  20)
       Total Heat Release Rate:             56.614 kW
       Radiation Loss to Boundaries:      -313.605 kW
       Mesh    5
       Max CFL number:  0.71E+00 at (  10,  10,  19)
       Max divergence:  0.32E+00 at (  28,  20,  10)
       Min divergence: -0.43E+00 at (  42,  19,  10)
       Max VN number:   0.22E+00 at (   4,  20,  20)
       Radiation Loss to Boundaries:      -154.593 kW
       Mesh    6
       Max CFL number:  0.67E-01 at (   1,  14,  18)
       Max divergence:  0.20E-04 at (   1,  10,   8)
       Min divergence: -0.10E-05 at (  71,   5,  15)
       Max VN number:   0.22E-01 at (   1,  20,  20)
       Radiation Loss to Boundaries:         0.290 kW
       Mesh    7
[...]
       Max VN number:   0.17E+00 at (   2,  20,  20)
       Radiation Loss to Boundaries:      -119.636 kW
       Mesh    7
       Max CFL number:  0.24E+00 at (   6,   8,  18)
       Max divergence:  0.14E+00 at (   6,   1,  16)
       Min divergence: -0.12E+00 at (   8,   8,  19)
       Max VN number:   0.83E-01 at (   4,   1,  16)
       Radiation Loss to Boundaries:        -2.773 kW
       Mesh    8
       Max CFL number:  0.16E-01 at (   2,   8,  16)
       Max divergence:  0.12E-05 at (   1,  18,   4)
       Min divergence: -0.86E-06 at (   2,   4,  17)
       Max VN number:   0.22E-02 at (  79,   9,  20)
       Radiation Loss to Boundaries:         0.003 kW
 
       Time Step    1600   June 26, 2020  16:25:41
       Step Size:    0.125E-01 s, Total Time:      22.60 s
       Pressure Iterations:     10
       Maximum Velocity Error:  0.22E+00 on Mesh   3 at (  81   1  20)
       Maximum Pressure Error:  0.43E+03 on Mesh   4 at (   1   1  20)
       ---------------------------------------------------------------
       Mesh    1
       Max CFL number:  0.43E-01 at (  80,   1,  20)
       Max divergence:  0.78E-02 at (  78,  16,  20)
       Min divergence: -0.15E-01 at (  79,  17,  20)
       Max VN number:   0.15E-01 at (  79,   1,  20)
       Radiation Loss to Boundaries:         0.051 kW
       Mesh    2
       Max CFL number:  0.22E+00 at (  79,  16,  20)
       Max divergence:  0.17E+00 at (  51,   1,  20)
       Min divergence: -0.14E+00 at (  74,  20,  16)
       Max VN number:   0.64E-01 at (  78,  16,  20)
       Radiation Loss to Boundaries:       -79.099 kW
       Mesh    3
       Max CFL number:  0.80E+00 at (  80,   1,  20)
       Max divergence:  0.15E+02 at (  48,   4,   1)
       Min divergence: -0.23E+01 at (  43,  13,   2)
       Max VN number:   0.35E+00 at (  53,   1,  16)
       Total Heat Release Rate:           6257.096 kW
       Radiation Loss to Boundaries:     -1800.086 kW
       Mesh    4
       Max CFL number:  0.81E+00 at (   3,   2,  19)
       Max divergence:  0.11E+01 at (   1,   1,  18)
       Min divergence: -0.82E+00 at (   1,   1,  20)
       Max VN number:   0.30E+00 at (   1,   1,  20)
       Total Heat Release Rate:              0.315 kW
       Radiation Loss to Boundaries:      -252.774 kW
       Mesh    5
       Max CFL number:  0.53E+00 at (   1,  10,  18)
       Max divergence:  0.47E+00 at (  25,   1,  11)
       Min divergence: -0.27E+00 at (  24,   1,  11)
       Max VN number:   0.16E+00 at (   6,   1,  20)
       Radiation Loss to Boundaries:      -139.706 kW
       Mesh    6
       Max CFL number:  0.45E+00 at (  18,  13,  14)
       Max divergence:  0.35E+00 at (  36,   8,  11)
       Min divergence: -0.25E+00 at (  34,  16,   8)
       Max VN number:   0.13E+00 at (  33,  20,  20)
       Radiation Loss to Boundaries:      -114.630 kW
       Mesh    7
       Max CFL number:  0.31E+00 at (   7,   4,  17)
       Max divergence:  0.23E+00 at (  16,  13,  17)
       Min divergence: -0.19E+00 at (  18,  12,  16)
       Max VN number:   0.90E-01 at (   9,  20,  13)
       Radiation Loss to Boundaries:       -21.480 kW
       Mesh    8
       Max CFL number:  0.46E-01 at (  12,   6,  14)
       Max divergence:  0.22E-05 at (   1,  17,   3)
       Min divergence: -0.87E-06 at (  73,  16,   4)
       Max VN number:   0.13E-01 at (  80,  20,  20)
       Radiation Loss to Boundaries:         0.012 kW
 
       Time Step    1700   June 26, 2020  16:26:10
       Step Size:    0.132E-01 s, Total Time:      23.97 s
       Pressure Iterations:     10
       Maximum Velocity Error:  0.36E+00 on Mesh   3 at (  81  19  15)
       Maximum Pressure Error:  0.39E+03 on Mesh   3 at (  43  13   1)
       ---------------------------------------------------------------
       Mesh    1
       Max CFL number:  0.44E-01 at (  79,   9,  20)
       Max divergence:  0.60E-02 at (  76,   6,  20)
       Min divergence: -0.12E-01 at (  77,   1,  20)
       Max VN number:   0.14E-01 at (  76,  20,  20)
       Radiation Loss to Boundaries:         0.011 kW
       Mesh    2
       Max CFL number:  0.17E+00 at (  48,  16,  19)
       Max divergence:  0.18E+00 at (  44,   7,  20)
       Min divergence: -0.18E+00 at (  41,   4,  20)
       Max VN number:   0.58E-01 at (  51,  20,  20)
       Radiation Loss to Boundaries:       -87.029 kW
       Mesh    3
       Max CFL number:  0.88E+00 at (  60,   1,  20)
       Max divergence:  0.13E+02 at (  50,   6,   1)
       Min divergence: -0.32E+01 at (  43,  13,   1)
       Max VN number:   0.32E+00 at (  61,   1,  20)
       Total Heat Release Rate:           7662.271 kW
       Radiation Loss to Boundaries:     -2353.998 kW
       Mesh    4
       Max CFL number:  0.82E+00 at (  17,  19,  17)
       Max divergence:  0.71E+00 at (  12,  20,  13)
       Min divergence: -0.77E+00 at (  15,  19,  16)
       Max VN number:   0.25E+00 at (  21,  20,  20)
       Total Heat Release Rate:              0.494 kW
       Radiation Loss to Boundaries:      -266.808 kW
       Mesh    5
       Max CFL number:  0.61E+00 at (  11,   9,  18)
       Max divergence:  0.36E+00 at (  37,   1,  17)
       Min divergence: -0.25E+00 at (  16,  14,  20)
       Max VN number:   0.18E+00 at (   1,   1,  20)
       Radiation Loss to Boundaries:      -144.366 kW
       Mesh    6
       Max CFL number:  0.45E+00 at (  10,  13,  19)
       Max divergence:  0.18E+00 at (  27,   1,   7)
       Min divergence: -0.27E+00 at (  74,  10,   9)
       Max VN number:   0.14E+00 at (   9,   1,  20)
       Radiation Loss to Boundaries:      -111.365 kW
       Mesh    7
       Max CFL number:  0.33E+00 at (  22,   5,  17)
       Max divergence:  0.14E+00 at (  12,   5,  11)
       Min divergence: -0.22E+00 at (   9,   5,  10)
       Max VN number:   0.10E+00 at (   8,   5,  10)
       Radiation Loss to Boundaries:       -41.234 kW
       Mesh    8
       Max CFL number:  0.48E-01 at (  50,  14,  16)
       Max divergence:  0.33E-05 at (   1,   9,   5)
       Min divergence: -0.10E-05 at (  78,   3,   2)
       Max VN number:   0.14E-01 at (  80,   1,  20)
       Radiation Loss to Boundaries:         0.028 kW
 
       Time Step    1800   June 26, 2020  16:26:40
       Step Size:    0.119E-01 s, Total Time:      25.33 s
       Pressure Iterations:     10
       Maximum Velocity Error:  0.36E+00 on Mesh   2 at (  81   5  20)
       Maximum Pressure Error:  0.50E+03 on Mesh   3 at (  66  12  20)
       ---------------------------------------------------------------
       Mesh    1
       Max CFL number:  0.36E-01 at (  76,   7,  20)
       Max divergence:  0.40E-02 at (  73,   3,  20)
       Min divergence: -0.97E-02 at (  74,   1,  20)
       Max VN number:   0.11E-01 at (  74,   9,  20)
       Radiation Loss to Boundaries:         0.039 kW
       Mesh    2
       Max CFL number:  0.15E+00 at (  79,   1,  18)
       Max divergence:  0.19E+00 at (  35,   7,  20)
       Min divergence: -0.16E+00 at (  37,   9,  20)
       Max VN number:   0.59E-01 at (  79,   1,  20)
       Radiation Loss to Boundaries:       -88.997 kW
       Mesh    3
       Max CFL number:  0.86E+00 at (  63,  13,  19)
       Max divergence:  0.12E+02 at (  49,  17,   1)
       Min divergence: -0.23E+01 at (  47,   7,   6)
       Max VN number:   0.34E+00 at (  66,  12,  20)
       Total Heat Release Rate:           8105.633 kW
       Radiation Loss to Boundaries:     -2579.721 kW
       Mesh    4
       Max CFL number:  0.69E+00 at (  32,  19,  16)
       Max divergence:  0.89E+00 at (  47,  20,  18)
       Min divergence: -0.74E+00 at (  45,  19,  17)
       Max VN number:   0.22E+00 at (  20,  20,  20)
       Total Heat Release Rate:              0.005 kW
       Radiation Loss to Boundaries:      -198.507 kW
       Mesh    5
       Max CFL number:  0.64E+00 at (   7,  17,  18)
       Max divergence:  0.51E+00 at (  12,  20,  14)
       Min divergence: -0.35E+00 at (  11,  20,  15)
       Max VN number:   0.21E+00 at (   2,  20,  20)
       Radiation Loss to Boundaries:      -169.400 kW
       Mesh    6
       Max CFL number:  0.45E+00 at (  21,   8,  14)
       Max divergence:  0.23E+00 at (  75,  15,  10)
       Min divergence: -0.23E+00 at (  12,  20,   7)
       Max VN number:   0.13E+00 at (  23,  20,  20)
       Radiation Loss to Boundaries:      -105.396 kW
       Mesh    7
       Max CFL number:  0.33E+00 at (  14,  17,  15)
       Max divergence:  0.18E+00 at (  13,  10,   9)
       Min divergence: -0.21E+00 at (  14,   8,  11)
       Max VN number:   0.88E-01 at (  11,  20,  20)
       Radiation Loss to Boundaries:       -56.016 kW
       Mesh    8
       Max CFL number:  0.66E-01 at (   4,   4,  17)
       Max divergence:  0.60E-05 at (   2,  10,   6)
       Min divergence: -0.20E-05 at (  80,   7,   2)
       Max VN number:   0.21E-01 at (  80,  20,  20)
       Radiation Loss to Boundaries:         0.074 kW
 
       Time Step    1900   June 26, 2020  16:27:09
       Step Size:    0.116E-01 s, Total Time:      26.64 s
       Pressure Iterations:     10
       Maximum Velocity Error:  0.34E+00 on Mesh   3 at (  81  18  19)
       Maximum Pressure Error:  0.58E+03 on Mesh   3 at (  48  14   1)
       ---------------------------------------------------------------
       Mesh    1
       Max CFL number:  0.34E-01 at (  73,   7,  20)
       Max divergence:  0.31E-02 at (  71,   9,  20)
       Min divergence: -0.62E-02 at (  72,   1,  20)
       Max VN number:   0.10E-01 at (  72,   7,  20)
       Radiation Loss to Boundaries:         0.067 kW
       Mesh    2
       Max CFL number:  0.16E+00 at (  79,  19,  16)
       Max divergence:  0.16E+00 at (  29,  16,  20)
       Min divergence: -0.12E+00 at (  30,  13,  20)
       Max VN number:   0.55E-01 at (  79,  19,  16)
       Radiation Loss to Boundaries:       -90.172 kW
       Mesh    3
       Max CFL number:  0.88E+00 at (  58,  15,  20)
       Max divergence:  0.19E+02 at (  43,  15,   1)
       Min divergence: -0.38E+01 at (  45,  16,   1)
       Max VN number:   0.40E+00 at (  51,   9,  20)
       Total Heat Release Rate:          10214.078 kW
       Radiation Loss to Boundaries:     -2902.786 kW
       Mesh    4
       Max CFL number:  0.80E+00 at (   3,   2,  16)
       Max divergence:  0.85E+00 at (  13,   1,  14)
       Min divergence: -0.84E+00 at (   3,   1,  15)
       Max VN number:   0.26E+00 at (   1,  20,  20)
       Total Heat Release Rate:              0.241 kW
       Radiation Loss to Boundaries:      -291.618 kW
       Mesh    5
       Max CFL number:  0.64E+00 at (  31,  17,  18)
       Max divergence:  0.33E+00 at (  58,   3,   6)
       Min divergence: -0.26E+00 at (  49,  12,   9)
       Max VN number:   0.21E+00 at (  29,  20,  20)
       Radiation Loss to Boundaries:      -156.663 kW
       Mesh    6
       Max CFL number:  0.48E+00 at (   2,  12,  18)
       Max divergence:  0.21E+00 at (   7,  12,   9)
       Min divergence: -0.26E+00 at (   1,  17,   7)
       Max VN number:   0.14E+00 at (  25,   1,  20)
       Radiation Loss to Boundaries:      -108.183 kW
       Mesh    7
       Max CFL number:  0.36E+00 at (  32,  15,  15)
       Max divergence:  0.20E+00 at (   4,  18,   8)
       Min divergence: -0.17E+00 at (  13,   7,  10)
       Max VN number:   0.11E+00 at (  13,   7,  10)
       Radiation Loss to Boundaries:       -64.841 kW
       Mesh    8
       Max CFL number:  0.91E-01 at (   1,   5,  17)
       Max divergence:  0.10E-04 at (   1,  10,  20)
       Min divergence: -0.38E-05 at (  80,   7,   2)
       Max VN number:   0.30E-01 at (  80,  20,  20)
       Radiation Loss to Boundaries:         0.167 kW
 
       Time Step    2000   June 26, 2020  16:27:39
       Step Size:    0.139E-01 s, Total Time:      28.00 s
       Pressure Iterations:     10
       Maximum Velocity Error:  0.57E+00 on Mesh   3 at (  81   2  19)
       Maximum Pressure Error:  0.72E+03 on Mesh   3 at (  47  16   1)
       ---------------------------------------------------------------
       Mesh    1
       Max CFL number:  0.38E-01 at (  72,   7,  20)
       Max divergence:  0.20E-02 at (  69,   9,  20)
       Min divergence: -0.54E-02 at (  70,   8,  20)
       Max VN number:   0.11E-01 at (  70,   7,  20)
       Radiation Loss to Boundaries:         0.089 kW
       Mesh    2
       Max CFL number:  0.15E+00 at (  78,  20,  20)
       Max divergence:  0.15E+00 at (  23,  15,  20)
       Min divergence: -0.17E+00 at (  79,   1,  14)
       Max VN number:   0.53E-01 at (  78,   1,  13)
       Radiation Loss to Boundaries:       -97.232 kW
       Mesh    3
       Max CFL number:  0.77E+00 at (  48,  15,  13)
       Max divergence:  0.31E+02 at (  48,  13,   1)
       Min divergence: -0.29E+01 at (  43,  14,   1)
       Max VN number:   0.31E+00 at (  51,   5,  20)
       Total Heat Release Rate:           7131.238 kW
       Radiation Loss to Boundaries:     -1972.189 kW
       Mesh    4
       Max CFL number:  0.89E+00 at (  15,  17,  15)
       Max divergence:  0.11E+01 at (  26,  20,  18)
       Min divergence: -0.92E+00 at (  17,  17,  14)
       Max VN number:   0.27E+00 at (  27,  20,  20)
       Total Heat Release Rate:              0.256 kW
       Radiation Loss to Boundaries:      -279.494 kW
       Mesh    5
       Max CFL number:  0.70E+00 at (  13,   5,  17)
       Max divergence:  0.63E+00 at (   6,   3,  20)
       Min divergence: -0.44E+00 at (   5,   2,  19)
       Max VN number:   0.22E+00 at (   1,   1,  20)
       Radiation Loss to Boundaries:      -136.409 kW
       Mesh    6
       Max CFL number:  0.72E+00 at (  10,  16,  17)
       Max divergence:  0.30E+00 at (  67,  15,   8)
       Min divergence: -0.24E+00 at (  11,  16,  17)
       Max VN number:   0.22E+00 at (  17,  20,  20)
       Radiation Loss to Boundaries:      -117.910 kW
       Mesh    7
       Max CFL number:  0.44E+00 at (   5,  16,  14)
       Max divergence:  0.16E+00 at (   8,   9,   8)
       Min divergence: -0.19E+00 at (  21,  11,   7)
       Max VN number:   0.14E+00 at (   4,   1,  20)
       Radiation Loss to Boundaries:       -77.959 kW
       Mesh    8
       Max CFL number:  0.28E+00 at (   1,   4,  18)
       Max divergence:  0.88E-01 at (   1,   3,  20)
       Min divergence: -0.11E+00 at (   1,   4,  19)
       Max VN number:   0.65E-01 at (   1,   1,  20)
       Radiation Loss to Boundaries:         0.376 kW
 
       Time Step    2100   June 26, 2020  16:28:08
       Step Size:    0.153E-01 s, Total Time:      29.51 s
       Pressure Iterations:     10
       Maximum Velocity Error:  0.18E+00 on Mesh   3 at (  81  20  20)
       Maximum Pressure Error:  0.38E+03 on Mesh   3 at (  43  12   1)
       ---------------------------------------------------------------
       Mesh    1
       Max CFL number:  0.40E-01 at (  68,   7,  20)
       Max divergence:  0.18E-02 at (  66,   7,  20)
       Min divergence: -0.41E-02 at (  68,   6,  20)
       Max VN number:   0.12E-01 at (  67,   7,  20)
       Radiation Loss to Boundaries:         0.104 kW
       Mesh    2
       Max CFL number:  0.16E+00 at (  67,  10,  20)
       Max divergence:  0.11E+00 at (  18,  10,  20)
       Min divergence: -0.14E+00 at (  76,   1,  16)
       Max VN number:   0.52E-01 at (  55,   5,  20)
       Radiation Loss to Boundaries:      -100.961 kW
       Mesh    3
       Max CFL number:  0.99E+00 at (  43,   5,  17)
       Max divergence:  0.35E+02 at (  38,  20,   1)
       Min divergence: -0.23E+01 at (  43,  16,   7)
       Max VN number:   0.35E+00 at (  49,   4,  20)
       Total Heat Release Rate:           9183.689 kW
       Radiation Loss to Boundaries:     -2726.464 kW
       Mesh    4
       Max CFL number:  0.78E+00 at (  17,  10,  19)
       Max divergence:  0.10E+01 at (  26,  20,  19)
       Min divergence: -0.77E+00 at (  12,   9,  15)
       Max VN number:   0.28E+00 at (  14,  20,  20)
       Total Heat Release Rate:              0.004 kW
       Radiation Loss to Boundaries:      -271.144 kW
       Mesh    5
       Max CFL number:  0.79E+00 at (   6,  15,  19)
       Max divergence:  0.40E+00 at (  10,  14,   9)
       Min divergence: -0.47E+00 at (  43,   6,   7)
       Max VN number:   0.22E+00 at (  25,   1,  20)
       Radiation Loss to Boundaries:      -158.417 kW
       Mesh    6
       Max CFL number:  0.60E+00 at (  23,  15,  18)
       Max divergence:  0.22E+00 at (  28,   5,   4)
       Min divergence: -0.26E+00 at (  28,   6,   4)
       Max VN number:   0.20E+00 at (  30,  20,  20)
       Radiation Loss to Boundaries:      -115.738 kW
       Mesh    7
       Max CFL number:  0.46E+00 at (   5,   6,  17)
       Max divergence:  0.22E+00 at (  26,  15,   9)
       Min divergence: -0.19E+00 at (  51,  15,   6)
       Max VN number:   0.13E+00 at (  11,  20,  20)
       Radiation Loss to Boundaries:       -78.937 kW
       Mesh    8
       Max CFL number:  0.34E+00 at (   7,  10,  18)
       Max divergence:  0.15E+00 at (   6,  20,  15)
       Min divergence: -0.12E+00 at (  14,   2,  18)
       Max VN number:   0.11E+00 at (   8,   1,  12)
       Radiation Loss to Boundaries:       -11.127 kW
 
       Time Step    2134   June 26, 2020  16:28:18
       Step Size:    0.313E-02 s, Total Time:      30.00 s
       Pressure Iterations:      6
       Maximum Velocity Error:  0.98E-01 on Mesh   3 at (  81   9  18)
       Maximum Pressure Error:  0.35E+03 on Mesh   3 at (  80  20  20)
       ---------------------------------------------------------------
       Mesh    1
       Max CFL number:  0.77E-02 at (  67,   7,  20)
       Max divergence:  0.18E-02 at (  66,   9,  20)
       Min divergence: -0.45E-02 at (  67,   8,  20)
       Max VN number:   0.22E-02 at (  66,   7,  20)
       Radiation Loss to Boundaries:         0.109 kW
       Mesh    2
       Max CFL number:  0.30E-01 at (  64,  10,  20)
       Max divergence:  0.11E+00 at (  53,  15,  20)
       Min divergence: -0.17E+00 at (  77,  19,  15)
       Max VN number:   0.11E-01 at (  74,   7,  20)
       Radiation Loss to Boundaries:       -96.829 kW
       Mesh    3
       Max CFL number:  0.18E+00 at (  43,  12,  14)
       Max divergence:  0.15E+02 at (  41,  17,   1)
       Min divergence: -0.33E+01 at (  43,  10,   1)
       Max VN number:   0.60E-01 at (  54,   7,  20)
       Total Heat Release Rate:           7951.017 kW
       Radiation Loss to Boundaries:     -2160.464 kW
       Mesh    4
       Max CFL number:  0.15E+00 at (  41,  11,  18)
       Max divergence:  0.80E+00 at (   1,   8,  18)
       Min divergence: -0.84E+00 at (   3,   1,  13)
       Max VN number:   0.52E-01 at (  26,  20,  20)
       Total Heat Release Rate:              0.011 kW
       Radiation Loss to Boundaries:      -286.974 kW
       Mesh    5
       Max CFL number:  0.14E+00 at (  24,  15,  19)
       Max divergence:  0.47E+00 at (   2,  20,  13)
       Min divergence: -0.39E+00 at (  16,   2,  15)
       Max VN number:   0.42E-01 at (  61,   6,   6)
       Radiation Loss to Boundaries:      -158.547 kW
       Mesh    6
       Max CFL number:  0.12E+00 at (  38,  15,  18)
       Max divergence:  0.16E+00 at (  35,   1,   7)
       Min divergence: -0.23E+00 at (  22,   7,   3)
       Max VN number:   0.37E-01 at (  32,  20,  20)
       Radiation Loss to Boundaries:      -113.708 kW
       Mesh    7
       Max CFL number:  0.92E-01 at (   4,   9,  17)
       Max divergence:  0.21E+00 at (  52,   9,  12)
       Min divergence: -0.21E+00 at (  49,  10,  10)
       Max VN number:   0.28E-01 at (  17,  20,  10)
       Radiation Loss to Boundaries:       -78.752 kW
       Mesh    8
       Max CFL number:  0.69E-01 at (   6,  10,  18)
       Max divergence:  0.14E+00 at (  10,  20,  12)
       Min divergence: -0.15E+00 at (   1,   2,  11)
       Max VN number:   0.25E-01 at (  10,  20,  14)
       Radiation Loss to Boundaries:       -15.720 kW
 


 Time Stepping Wall Clock Time (s):      621.789
 Total Elapsed Wall Clock Time (s):      627.832

STOP: FDS completed successfully (CHID: tunnel_demo)
