
 Fire Dynamics Simulator

 Current Date     : October 28, 2020  15:46:12
 Revision         : -dirty-master
 Revision Date    : Wed Oct 28 15:04:48 2020 +0100
 Compiler         : Intel ifort 18.0.1
 Compilation Date : Oct 28, 2020 15:16:47

 MPI Enabled;    Number of MPI Processes:       8
 OpenMP Enabled; Number of OpenMP Threads:      2

 MPI version: 3.1
 MPI library version: Intel(R) MPI Library 2018 Update 1 for Linux* OS


 Job TITLE        : Unstructured ScaRC-CG for 3D-cube with obstruction on 8 meshes
 Job ID string    : pressure_iteration3d_mgm_simple


 Grid Dimensions, Mesh     1

   Cells in the X Direction            16
   Cells in the Y Direction            16
   Cells in the Z Direction            16
   Number of Grid Cells              4096


 Physical Dimensions, Mesh     1

   Length (m)                       0.400
   Width  (m)                       0.400
   Height (m)                       0.400
   Initial Time Step (s)            0.022

 Grid Dimensions, Mesh     2

   Cells in the X Direction            16
   Cells in the Y Direction            16
   Cells in the Z Direction            16
   Number of Grid Cells              4096


 Physical Dimensions, Mesh     2

   Length (m)                       0.400
   Width  (m)                       0.400
   Height (m)                       0.400
   Initial Time Step (s)            0.022

 Grid Dimensions, Mesh     3

   Cells in the X Direction            16
   Cells in the Y Direction            16
   Cells in the Z Direction            16
   Number of Grid Cells              4096


 Physical Dimensions, Mesh     3

   Length (m)                       0.400
   Width  (m)                       0.400
   Height (m)                       0.400
   Initial Time Step (s)            0.022

 Grid Dimensions, Mesh     4

   Cells in the X Direction            16
   Cells in the Y Direction            16
   Cells in the Z Direction            16
   Number of Grid Cells              4096


 Physical Dimensions, Mesh     4

   Length (m)                       0.400
   Width  (m)                       0.400
   Height (m)                       0.400
   Initial Time Step (s)            0.022

 Grid Dimensions, Mesh     5

   Cells in the X Direction            16
   Cells in the Y Direction            16
   Cells in the Z Direction            16
   Number of Grid Cells              4096


 Physical Dimensions, Mesh     5

   Length (m)                       0.400
   Width  (m)                       0.400
   Height (m)                       0.400
   Initial Time Step (s)            0.022

 Grid Dimensions, Mesh     6

   Cells in the X Direction            16
   Cells in the Y Direction            16
   Cells in the Z Direction            16
   Number of Grid Cells              4096


 Physical Dimensions, Mesh     6

   Length (m)                       0.400
   Width  (m)                       0.400
   Height (m)                       0.400
   Initial Time Step (s)            0.022

 Grid Dimensions, Mesh     7

   Cells in the X Direction            16
   Cells in the Y Direction            16
   Cells in the Z Direction            16
   Number of Grid Cells              4096


 Physical Dimensions, Mesh     7

   Length (m)                       0.400
   Width  (m)                       0.400
   Height (m)                       0.400
   Initial Time Step (s)            0.022

 Grid Dimensions, Mesh     8

   Cells in the X Direction            16
   Cells in the Y Direction            16
   Cells in the Z Direction            16
   Number of Grid Cells              4096


 Physical Dimensions, Mesh     8

   Length (m)                       0.400
   Width  (m)                       0.400
   Height (m)                       0.400
   Initial Time Step (s)            0.022

Total Number of Grid Cells         32768


 Miscellaneous Parameters

   Simulation Start Time (s)          0.0
   Simulation End Time (s)            0.5
   Ambient Temperature (C):         20.00


 Mass Fraction Transformation Matrix to Convert Species Mixtures (Columns) to Primitive Species (Rows)

                         BACKGROU
   BACKGROUND            1.000000


 Primitive Species Information

   BACKGROUND
   Gas Species
   Molecular Weight (g/mol)            28.01340
   Ambient Density (kg/m^3)            1.165
   Enthalpy of Formation (J/kg)        0.00E+00


 Tracked (Lumped) Species Information

   BACKGROUND
   Molecular Weight (g/mol)            28.01340
   Ambient Density (kg/m^3)            1.165
   Initial Mass Fraction               1.000
   Enthalpy of Formation (J/kg)      0.00E+00

   Sub Species                    Mass Fraction     Mole Fraction
   BACKGROUND                     1.000000E+00      1.000000E+00
 
     Viscosity (kg/m/s) Ambient,  293 K:  1.74E-05
                                  500 K:  2.51E-05
                                 1000 K:  3.95E-05
                                 1500 K:  5.14E-05
   Therm. Cond. (W/m/K) Ambient,  293 K:  2.55E-02
                                  500 K:  3.67E-02
                                 1000 K:  5.78E-02
                                 1500 K:  7.52E-02
        Enthalpy (J/kg) Ambient,  293 K:  3.05E+05
                                  500 K:  5.19E+05
                                 1000 K:  1.04E+06
                                 1500 K:  1.56E+06
    Spec. Heat (J/kg/K) Ambient,  293 K:  1.04E+03
                                  500 K:  1.04E+03
                                 1000 K:  1.04E+03
                                 1500 K:  1.04E+03
   Diff. Coeff. (m^2/s) Ambient,  293 K:  1.99E-05
                                  500 K:  4.93E-05
                                 1000 K:  1.57E-04
                                 1500 K:  3.07E-04


 Material Information


 Surface Conditions

   0 INERT (DEFAULT)

   1 INFLOW1
     Normal Velocity (m/s)        -2.000
     BACKGROUND Mass Fraction         1.000

   2 INFLOW2
     Normal Velocity (m/s)        -2.000
     BACKGROUND Mass Fraction         1.000

   3 INFLOW3
     Normal Velocity (m/s)        -2.000
     BACKGROUND Mass Fraction         1.000

   4 OPEN
     Passive Vent to Atmosphere

   5 MIRROR
     Symmetry Plane

   6 INTERPOLATED

   7 PERIODIC

   8 HVAC

   9 MASSLESS TRACER

  10 DROPLET

  11 EVACUATION_OUTFLOW
     Normal Velocity (m/s)         0.000

  12 MASSLESS TARGET

  13 PERIODIC FLOW ONLY


 Cut-off Density and Temperature

    Minimum Temperature:   -10.0 C
    Maximum Temperature:  2726.8 C
    Minimum Density:  1.165E-01 kg/m3
    Maximum Density:  2.595E+00 kg/m3


 Device Coordinates

     1 Coords:      0.640000      0.000250      0.410000, Make: null, ID: u-vel, Quantity: U-VELOCITY
     2 Coords:      0.640000      0.000250      0.410000, Make: null, ID: v-vel, Quantity: V-VELOCITY
     3 Coords:      0.640000      0.000250      0.410000, Make: null, ID: w-vel, Quantity: W-VELOCITY
     4 Coords:      0.640000      0.000250      0.410000, Make: null, ID: pres, Quantity: PRESSURE
     5 Coords:      0.000250      0.000250      0.000250, Make: null, ID: error, Quantity: MAXIMUM VELOCITY ERROR
     6 Coords:      0.000250      0.000250      0.000250, Make: null, ID: iter, Quantity: PRESSURE ITERATIONS
     7 Coords:      0.000250      0.000250      0.000250, Make: null, ID: scarc-iter, Quantity: SCARC ITERATIONS
     8 Coords:      0.000250      0.000250      0.000250, Make: null, ID: scarc-rate, Quantity: SCARC CONVERGENCE RATE
     9 Coords:      0.000250      0.000250      0.000250, Make: null, ID: scarc-res, Quantity: SCARC RESIDUAL


 Slice File Information, Mesh     1

   Sampling Interval (s)             0.001

   1 Nodes:  16  16   0  16   0  16, Quantity: VELOCITY
   2 Nodes:  16  16   0  16   0  16, Quantity: U-VELOCITY
   3 Nodes:  16  16   0  16   0  16, Quantity: V-VELOCITY
   4 Nodes:  16  16   0  16   0  16, Quantity: W-VELOCITY
   5 Nodes:  16  16   0  16   0  16, Quantity: H
   6 Nodes:   0  16  16  16   0  16, Quantity: VELOCITY
   7 Nodes:   0  16  16  16   0  16, Quantity: U-VELOCITY
   8 Nodes:   0  16  16  16   0  16, Quantity: V-VELOCITY
   9 Nodes:   0  16  16  16   0  16, Quantity: W-VELOCITY
  10 Nodes:   0  16  16  16   0  16, Quantity: H
  11 Nodes:   0  16   0  16  16  16, Quantity: VELOCITY
  12 Nodes:   0  16   0  16  16  16, Quantity: U-VELOCITY
  13 Nodes:   0  16   0  16  16  16, Quantity: V-VELOCITY
  14 Nodes:   0  16   0  16  16  16, Quantity: W-VELOCITY
  15 Nodes:   0  16   0  16  16  16, Quantity: H


 Radiation Model Information

   Number of control angles  104
   Time step increment         3
   Angle increment             5
   Theta band N_phi   Solid angle
     1:        4     0.120
     2:       12     0.114
     3:       16     0.127
     4:       20     0.120
     5:       20     0.120
     6:       16     0.127
     7:       12     0.114
     8:        4     0.120


 USCARC Information

   Discretization             STRUCTURED
   Global solver                     MGM
   Storage technique             COMPACT
 
 

 Run Time Diagnostics

       Time Step       1   October 28, 2020  15:46:37
       Step Size:    0.264E-02 s, Total Time:      0.003 s
       Pressure Iterations:     10
       Maximum Velocity Error:  0.14E-16 on Mesh   1 at (  17   7   1)
       Maximum Pressure Error:  0.10E+06 on Mesh   1 at (  13  13  13)
       ScaRC: iterations    39, residual  0.63E-08, convergence rate   0.47E+00
       ---------------------------------------------------------------
       Mesh    1
       Max CFL number:  0.42E+00 at (  13,   1,  13)
       Max divergence:  0.72E-04 at (  15,  15,   2)
       Min divergence: -0.51E+01 at (  16,  12,  16)
       Max div. error:  0.51E+01 at (  16,  12,  16)
       Max VN number:   0.53E-03 at (  12,  16,  16)
       Mesh    2
       Max CFL number:  0.44E+00 at (   4,   1,  13)
       Max divergence:  0.31E+01 at (   5,  16,  16)
       Min divergence: -0.51E+01 at (   1,  12,  16)
       Max div. error:  0.51E+01 at (   1,  12,  16)
       Max VN number:   0.53E-03 at (  16,  16,  16)
       Mesh    3
       Max CFL number:  0.28E+00 at (  13,   4,   1)
       Max divergence:  0.35E+01 at (  16,   5,  16)
       Min divergence: -0.33E+01 at (  16,   1,  12)
       Max div. error:  0.35E+01 at (  16,   5,  16)
       Max VN number:   0.53E-03 at (  16,  16,  16)
       Mesh    4
       Max CFL number:  0.28E+00 at (   4,   4,   1)
       Max divergence:  0.35E+01 at (   1,   5,  16)
       Min divergence: -0.32E+01 at (   1,   1,  12)
       Max div. error:  0.35E+01 at (   1,   5,  16)
       Max VN number:   0.53E-03 at (  16,  16,  16)
       Mesh    5
       Max CFL number:  0.44E+00 at (  13,   1,   4)
       Max divergence:  0.33E+01 at (  16,  16,   5)
       Min divergence: -0.51E+01 at (  16,  12,   1)
       Max div. error:  0.51E+01 at (  16,  12,   1)
       Max VN number:   0.53E-03 at (  16,  16,  16)
       Mesh    6
       Max CFL number:  0.45E+00 at (   4,   1,   4)
       Max divergence:  0.32E+01 at (   1,  16,   5)
       Min divergence: -0.50E+01 at (   1,  12,   1)
       Max div. error:  0.50E+01 at (   1,  12,   1)
       Max VN number:   0.53E-03 at (  16,  16,  16)
       Mesh    7
       Max CFL number:  0.16E+00 at (   1,   4,   4)
       Max divergence:  0.34E+01 at (  16,   5,   1)
       Min divergence: -0.18E+01 at (  12,   1,   1)
       Max div. error:  0.34E+01 at (  16,   5,   1)
       Max VN number:   0.53E-03 at (  16,  16,  16)
       Mesh    8
       Max CFL number:  0.23E-01 at (   5,   1,   1)
       Max divergence:  0.33E+01 at (   1,   5,   1)
       Min divergence:  0.65E-08 at (  16,  16,  12)
       Max div. error:  0.33E+01 at (   1,   5,   1)
       Max VN number:   0.53E-03 at (  16,  16,  16)
 
       Time Step       2   October 28, 2020  15:46:39
       Step Size:    0.264E-02 s, Total Time:      0.005 s
       Pressure Iterations:      1
       Maximum Velocity Error:  0.14E-16 on Mesh   1 at (   1  17   2)
       Maximum Pressure Error:  0.40E+04 on Mesh   1 at (  16  13  13)
       ScaRC: iterations    38, residual  0.95E-08, convergence rate   0.47E+00
       ---------------------------------------------------------------
       Mesh    1
       Max CFL number:  0.40E+00 at (  13,   1,  13)
       Max divergence:  0.65E+00 at (  16,  11,  16)
       Min divergence: -0.20E+01 at (  16,  12,  16)
       Max div. error:  0.20E+01 at (  16,  12,  16)
       Max VN number:   0.53E-03 at (  15,   2,  15)
       Mesh    2
       Max CFL number:  0.42E+00 at (   4,   1,  13)
       Max divergence:  0.13E+01 at (   5,  16,  16)
       Min divergence: -0.20E+01 at (   1,  12,  16)
       Max div. error:  0.20E+01 at (   1,  12,  16)
       Max VN number:   0.54E-03 at (   5,  16,  16)
       Mesh    3
       Max CFL number:  0.27E+00 at (  13,   4,   1)
       Max divergence:  0.14E+01 at (  16,   5,  16)
       Min divergence: -0.13E+01 at (  16,   1,  12)
       Max div. error:  0.15E+01 at (  16,   5,  16)
       Max VN number:   0.54E-03 at (  16,   5,  16)
       Mesh    4
       Max CFL number:  0.27E+00 at (   4,   4,   1)
       Max divergence:  0.14E+01 at (   1,   5,  16)
       Min divergence: -0.13E+01 at (   1,   1,  12)
       Max div. error:  0.14E+01 at (   1,   5,  16)
       Max VN number:   0.54E-03 at (   1,   5,  16)
       Mesh    5
       Max CFL number:  0.42E+00 at (  13,   1,   4)
       Max divergence:  0.13E+01 at (  16,  16,   5)
       Min divergence: -0.20E+01 at (  16,  12,   1)
       Max div. error:  0.20E+01 at (  16,  12,   1)
       Max VN number:   0.54E-03 at (  16,  16,   5)
       Mesh    6
       Max CFL number:  0.42E+00 at (   4,   1,   4)
       Max divergence:  0.13E+01 at (   1,  16,   5)
       Min divergence: -0.20E+01 at (   1,  12,   1)
       Max div. error:  0.20E+01 at (   1,  12,   1)
       Max VN number:   0.54E-03 at (   1,  16,   5)
       Mesh    7
       Max CFL number:  0.15E+00 at (   1,   4,   4)
       Max divergence:  0.14E+01 at (  16,   5,   1)
       Min divergence: -0.75E+00 at (  12,   1,   1)
       Max div. error:  0.14E+01 at (  16,   5,   1)
       Max VN number:   0.54E-03 at (  16,   5,   1)
       Mesh    8
       Max CFL number:  0.21E-01 at (   5,   1,   1)
       Max divergence:  0.14E+01 at (   1,   5,   1)
       Min divergence: -0.43E+00 at (   1,   6,   1)
       Max div. error:  0.14E+01 at (   1,   5,   1)
       Max VN number:   0.54E-03 at (   1,   5,   1)
 
       Time Step       3   October 28, 2020  15:46:42
       Step Size:    0.264E-02 s, Total Time:      0.008 s
       Pressure Iterations:      1
       Maximum Velocity Error:  0.14E-16 on Mesh   1 at (   1  17   1)
       Maximum Pressure Error:  0.71E+03 on Mesh   1 at (  16  13  16)
       ScaRC: iterations    38, residual  0.75E-08, convergence rate   0.47E+00
       ---------------------------------------------------------------
       Mesh    1
       Max CFL number:  0.39E+00 at (  13,   1,  13)
       Max divergence:  0.56E+00 at (  16,  11,  16)
       Min divergence: -0.85E+00 at (  16,  12,  16)
       Max div. error:  0.85E+00 at (  16,  12,  16)
       Max VN number:   0.54E-03 at (  16,  11,  16)
       Mesh    2
       Max CFL number:  0.40E+00 at (   4,   1,  13)
       Max divergence:  0.55E+00 at (   1,  11,  16)
       Min divergence: -0.84E+00 at (   1,  12,  16)
       Max div. error:  0.84E+00 at (   1,  12,  16)
       Max VN number:   0.54E-03 at (   5,  16,  16)
       Mesh    3
       Max CFL number:  0.26E+00 at (  13,   4,   1)
       Max divergence:  0.59E+00 at (  16,   5,  16)
       Min divergence: -0.54E+00 at (  16,   1,  12)
       Max div. error:  0.59E+00 at (  16,   5,  16)
       Max VN number:   0.55E-03 at (  16,   5,  16)
       Mesh    4
       Max CFL number:  0.27E+00 at (   4,   4,   1)
       Max divergence:  0.59E+00 at (   1,   5,  16)
       Min divergence: -0.52E+00 at (   1,   1,  12)
       Max div. error:  0.59E+00 at (   1,   5,  16)
       Max VN number:   0.55E-03 at (   1,   5,  16)
       Mesh    5
       Max CFL number:  0.40E+00 at (  13,   1,   4)
       Max divergence:  0.55E+00 at (  16,  11,   1)
       Min divergence: -0.83E+00 at (  16,  12,   1)
       Max div. error:  0.84E+00 at (  16,  12,   1)
       Max VN number:   0.54E-03 at (  16,  16,   5)
       Mesh    6
       Max CFL number:  0.41E+00 at (   4,   1,   4)
       Max divergence:  0.55E+00 at (   1,  11,   1)
       Min divergence: -0.82E+00 at (   1,  12,   1)
       Max div. error:  0.82E+00 at (   1,  12,   1)
       Max VN number:   0.54E-03 at (   1,  16,   5)
       Mesh    7
       Max CFL number:  0.15E+00 at (   1,   4,   4)
       Max divergence:  0.59E+00 at (  16,   5,   1)
       Min divergence: -0.39E+00 at (  16,   6,   1)
       Max div. error:  0.60E+00 at (  16,   5,   1)
       Max VN number:   0.55E-03 at (  16,   5,   1)
       Mesh    8
       Max CFL number:  0.19E-01 at (   5,   1,   1)
       Max divergence:  0.60E+00 at (   1,   5,   1)
       Min divergence: -0.39E+00 at (   1,   6,   1)
       Max div. error:  0.60E+00 at (   1,   5,   1)
       Max VN number:   0.55E-03 at (   1,   5,   1)
 
       Time Step       4   October 28, 2020  15:46:44
       Step Size:    0.264E-02 s, Total Time:       0.01 s
       Pressure Iterations:      1
       Maximum Velocity Error:  0.14E-16 on Mesh   1 at (   1  17   1)
       Maximum Pressure Error:  0.35E+03 on Mesh   8 at (   4   4   4)
       ScaRC: iterations    38, residual  0.64E-08, convergence rate   0.47E+00
       ---------------------------------------------------------------
       Mesh    1
       Max CFL number:  0.38E+00 at (  13,   1,  13)
       Max divergence:  0.37E+00 at (  16,  11,  16)
       Min divergence: -0.47E+00 at (  16,  12,  16)
       Max div. error:  0.47E+00 at (  16,  12,  16)
       Max VN number:   0.54E-03 at (  16,  11,  16)
       Mesh    2
       Max CFL number:  0.39E+00 at (   4,   1,  13)
       Max divergence:  0.36E+00 at (   1,  11,  16)
       Min divergence: -0.45E+00 at (   1,  12,  16)
       Max div. error:  0.45E+00 at (   1,  12,  16)
       Max VN number:   0.55E-03 at (   5,  16,  16)
       Mesh    3
       Max CFL number:  0.25E+00 at (  13,   4,   1)
       Max divergence:  0.30E+00 at (  16,   5,  16)
       Min divergence: -0.28E+00 at (  16,   1,  12)
       Max div. error:  0.30E+00 at (  16,   5,  16)
       Max VN number:   0.55E-03 at (  16,   5,  16)
       Mesh    4
       Max CFL number:  0.26E+00 at (   4,   4,   1)
       Max divergence:  0.31E+00 at (   1,   5,  16)
       Min divergence: -0.27E+00 at (   1,   1,  12)
       Max div. error:  0.31E+00 at (   1,   5,  16)
       Max VN number:   0.55E-03 at (   1,   5,  16)
       Mesh    5
       Max CFL number:  0.39E+00 at (  13,   1,   4)
       Max divergence:  0.36E+00 at (  16,  11,   1)
       Min divergence: -0.45E+00 at (  16,  12,   1)
       Max div. error:  0.45E+00 at (  16,  12,   1)
       Max VN number:   0.55E-03 at (  16,  16,   5)
       Mesh    6
       Max CFL number:  0.39E+00 at (   4,   1,   4)
       Max divergence:  0.36E+00 at (   1,  11,   1)
       Min divergence: -0.43E+00 at (   1,  12,   1)
       Max div. error:  0.43E+00 at (   1,  12,   1)
       Max VN number:   0.55E-03 at (   1,  16,   5)
       Mesh    7
       Max CFL number:  0.15E+00 at (   1,   4,   4)
       Max divergence:  0.31E+00 at (  16,   5,   1)
       Min divergence: -0.26E+00 at (  16,   6,   1)
       Max div. error:  0.32E+00 at (  16,   5,   1)
       Max VN number:   0.55E-03 at (  16,   5,   1)
       Mesh    8
       Max CFL number:  0.18E-01 at (   6,   1,   1)
       Max divergence:  0.32E+00 at (   1,   5,   1)
       Min divergence: -0.26E+00 at (   1,   6,   1)
       Max div. error:  0.33E+00 at (   1,   5,   1)
       Max VN number:   0.55E-03 at (   1,   5,   1)
 
       Time Step       5   October 28, 2020  15:46:47
       Step Size:    0.291E-02 s, Total Time:       0.01 s
       Pressure Iterations:      1
       Maximum Velocity Error:  0.14E-16 on Mesh   1 at (   1  17   2)
       Maximum Pressure Error:  0.30E+03 on Mesh   8 at (   4   4   4)
       ScaRC: iterations    38, residual  0.56E-08, convergence rate   0.47E+00
       ---------------------------------------------------------------
       Mesh    1
       Max CFL number:  0.40E+00 at (  13,   1,  13)
       Max divergence:  0.28E+00 at (  16,  10,  16)
       Min divergence: -0.35E+00 at (  16,  12,  16)
       Max div. error:  0.35E+00 at (  16,  12,  16)
       Max VN number:   0.60E-03 at (  16,  11,  16)
       Mesh    2
       Max CFL number:  0.41E+00 at (   4,   1,  13)
       Max divergence:  0.28E+00 at (   1,  10,  16)
       Min divergence: -0.34E+00 at (   1,  12,  16)
       Max div. error:  0.34E+00 at (   1,  12,  16)
       Max VN number:   0.60E-03 at (   5,  16,  16)
       Mesh    3
       Max CFL number:  0.27E+00 at (  13,   4,   1)
       Max divergence:  0.21E+00 at (  16,   5,  16)
       Min divergence: -0.21E+00 at (  16,   1,  12)
       Max div. error:  0.21E+00 at (  16,   5,  16)
       Max VN number:   0.60E-03 at (  16,   5,  16)
       Mesh    4
       Max CFL number:  0.28E+00 at (   4,   4,   1)
       Max divergence:  0.22E+00 at (   1,   5,  16)
       Min divergence: -0.21E+00 at (   1,   7,  16)
       Max div. error:  0.22E+00 at (   1,   5,  16)
       Max VN number:   0.60E-03 at (   1,   5,  16)
       Mesh    5
       Max CFL number:  0.41E+00 at (  13,   1,   4)
       Max divergence:  0.28E+00 at (  16,  10,   1)
       Min divergence: -0.33E+00 at (  16,  12,   1)
       Max div. error:  0.33E+00 at (  16,  12,   1)
       Max VN number:   0.60E-03 at (  16,  16,   5)
       Mesh    6
       Max CFL number:  0.41E+00 at (   4,   1,   4)
       Max divergence:  0.27E+00 at (   1,  10,   1)
       Min divergence: -0.32E+00 at (   1,  12,   1)
       Max div. error:  0.32E+00 at (   1,  12,   1)
       Max VN number:   0.60E-03 at (   1,  16,   5)
       Mesh    7
       Max CFL number:  0.16E+00 at (   1,   4,   4)
       Max divergence:  0.22E+00 at (  16,   5,   1)
       Min divergence: -0.21E+00 at (  16,   7,   1)
       Max div. error:  0.23E+00 at (  16,   5,   1)
       Max VN number:   0.60E-03 at (  16,   5,   1)
       Mesh    8
       Max CFL number:  0.20E-01 at (   6,   1,   1)
       Max divergence:  0.24E+00 at (   1,   5,   1)
       Min divergence: -0.21E+00 at (   1,   7,   1)
       Max div. error:  0.24E+00 at (   1,   5,   1)
       Max VN number:   0.60E-03 at (   1,   5,   1)
 
       Time Step       6   October 28, 2020  15:46:50
       Step Size:    0.291E-02 s, Total Time:       0.02 s
       Pressure Iterations:      1
       Maximum Velocity Error:  0.14E-16 on Mesh   1 at (   1  17   1)
       Maximum Pressure Error:  0.26E+03 on Mesh   8 at (   4   4   4)
       ScaRC: iterations    38, residual  0.50E-08, convergence rate   0.47E+00
       ---------------------------------------------------------------
       Mesh    1
       Max CFL number:  0.39E+00 at (  13,   1,  13)
       Max divergence:  0.20E+00 at (  16,  10,  16)
       Min divergence: -0.27E+00 at (  16,  12,  16)
       Max div. error:  0.28E+00 at (  16,  12,  16)
       Max VN number:   0.60E-03 at (  16,  11,  16)
       Mesh    2
       Max CFL number:  0.39E+00 at (   4,   1,  13)
       Max divergence:  0.20E+00 at (   1,  10,  16)
       Min divergence: -0.26E+00 at (   1,  12,  16)
       Max div. error:  0.26E+00 at (   1,  12,  16)
       Max VN number:   0.60E-03 at (   5,  16,  16)
       Mesh    3
       Max CFL number:  0.27E+00 at (  13,   4,   1)
       Max divergence:  0.15E+00 at (  16,   5,  16)
       Min divergence: -0.16E+00 at (  16,   1,  12)
       Max div. error:  0.16E+00 at (  16,   1,  12)
       Max VN number:   0.60E-03 at (  16,   5,  16)
       Mesh    4
       Max CFL number:  0.27E+00 at (   4,   4,   1)
       Max divergence:  0.16E+00 at (   1,   5,  16)
       Min divergence: -0.15E+00 at (   1,   7,  16)
       Max div. error:  0.16E+00 at (   1,   5,  16)
       Max VN number:   0.60E-03 at (   1,   5,  16)
       Mesh    5
       Max CFL number:  0.39E+00 at (  13,   1,   4)
       Max divergence:  0.20E+00 at (  16,  10,   1)
       Min divergence: -0.26E+00 at (  16,  12,   1)
       Max div. error:  0.26E+00 at (  16,  12,   1)
       Max VN number:   0.60E-03 at (  16,  16,   5)
       Mesh    6
       Max CFL number:  0.39E+00 at (   4,   1,   4)
       Max divergence:  0.19E+00 at (   1,  10,   1)
       Min divergence: -0.24E+00 at (   1,  12,   1)
       Max div. error:  0.25E+00 at (   1,  12,   1)
       Max VN number:   0.60E-03 at (   1,  16,   5)
       Mesh    7
       Max CFL number:  0.16E+00 at (   1,   4,   4)
       Max divergence:  0.16E+00 at (  16,   5,   1)
       Min divergence: -0.15E+00 at (  16,   7,   1)
       Max div. error:  0.17E+00 at (  16,   5,   1)
       Max VN number:   0.60E-03 at (  16,   5,   1)
       Mesh    8
       Max CFL number:  0.20E-01 at (   7,   1,   1)
       Max divergence:  0.17E+00 at (   1,   5,   1)
       Min divergence: -0.15E+00 at (   1,   7,   1)
       Max div. error:  0.18E+00 at (   1,   5,   1)
       Max VN number:   0.60E-03 at (   1,   5,   1)
 
       Time Step       7   October 28, 2020  15:46:52
       Step Size:    0.320E-02 s, Total Time:       0.02 s
       Pressure Iterations:      1
       Maximum Velocity Error:  0.14E-16 on Mesh   1 at (   1  17   2)
       Maximum Pressure Error:  0.21E+03 on Mesh   8 at (   4   4   4)
       ScaRC: iterations    38, residual  0.46E-08, convergence rate   0.47E+00
       ---------------------------------------------------------------
       Mesh    1
       Max CFL number:  0.41E+00 at (  13,   1,  13)
       Max divergence:  0.16E+00 at (  16,  10,  16)
       Min divergence: -0.25E+00 at (  16,  12,  16)
       Max div. error:  0.25E+00 at (  16,  12,  16)
       Max VN number:   0.66E-03 at (  16,  11,  16)
       Mesh    2
       Max CFL number:  0.41E+00 at (   4,   1,  13)
       Max divergence:  0.15E+00 at (   1,  10,  16)
       Min divergence: -0.24E+00 at (   1,  12,  16)
       Max div. error:  0.24E+00 at (   1,  12,  16)
       Max VN number:   0.66E-03 at (   5,  16,  16)
       Mesh    3
       Max CFL number:  0.28E+00 at (  13,   4,   1)
       Max divergence:  0.13E+00 at (  16,   5,  16)
       Min divergence: -0.14E+00 at (  16,   1,  12)
       Max div. error:  0.14E+00 at (  16,   1,  12)
       Max VN number:   0.66E-03 at (  16,   5,  16)
       Mesh    4
       Max CFL number:  0.29E+00 at (   4,   4,   1)
       Max divergence:  0.14E+00 at (   1,   5,  16)
       Min divergence: -0.13E+00 at (   1,   1,  12)
       Max div. error:  0.14E+00 at (   1,   5,  16)
       Max VN number:   0.66E-03 at (   1,   5,  16)
       Mesh    5
       Max CFL number:  0.41E+00 at (  13,   1,   4)
       Max divergence:  0.15E+00 at (  16,  10,   1)
       Min divergence: -0.24E+00 at (  16,  12,   1)
       Max div. error:  0.24E+00 at (  16,  12,   1)
       Max VN number:   0.66E-03 at (  16,  16,   5)
       Mesh    6
       Max CFL number:  0.41E+00 at (   4,   1,   4)
       Max divergence:  0.15E+00 at (   1,  10,   1)
       Min divergence: -0.23E+00 at (   1,  12,   1)
       Max div. error:  0.23E+00 at (   1,  12,   1)
       Max VN number:   0.66E-03 at (   1,  16,   5)
       Mesh    7
       Max CFL number:  0.17E+00 at (   1,   4,   4)
       Max divergence:  0.14E+00 at (  16,   5,   1)
       Min divergence: -0.12E+00 at (  16,   7,   1)
       Max div. error:  0.14E+00 at (  16,   5,   1)
       Max VN number:   0.66E-03 at (  16,   5,   1)
       Mesh    8
       Max CFL number:  0.22E-01 at (   7,   1,   1)
       Max divergence:  0.15E+00 at (   1,   5,   1)
       Min divergence: -0.12E+00 at (   1,   7,   1)
       Max div. error:  0.15E+00 at (   1,   5,   1)
       Max VN number:   0.66E-03 at (   1,   5,   1)
 
       Time Step       8   October 28, 2020  15:46:55
       Step Size:    0.320E-02 s, Total Time:       0.02 s
       Pressure Iterations:      1
       Maximum Velocity Error:  0.14E-16 on Mesh   1 at (   1  17   1)
       Maximum Pressure Error:  0.19E+03 on Mesh   2 at (   1  13  13)
       ScaRC: iterations    38, residual  0.42E-08, convergence rate   0.47E+00
       ---------------------------------------------------------------
       Mesh    1
       Max CFL number:  0.39E+00 at (  13,   1,  13)
       Max divergence:  0.12E+00 at (  16,   9,  16)
       Min divergence: -0.22E+00 at (  16,  12,  16)
       Max div. error:  0.22E+00 at (  16,  12,  16)
       Max VN number:   0.66E-03 at (  16,  11,  16)
       Mesh    2
       Max CFL number:  0.39E+00 at (   4,   1,  13)
       Max divergence:  0.12E+00 at (   1,   9,  16)
       Min divergence: -0.21E+00 at (   1,  12,  16)
       Max div. error:  0.21E+00 at (   1,  12,  16)
       Max VN number:   0.66E-03 at (   5,  16,  16)
       Mesh    3
       Max CFL number:  0.28E+00 at (  13,   4,   1)
       Max divergence:  0.10E+00 at (  16,   5,  16)
       Min divergence: -0.12E+00 at (  13,   1,  12)
       Max div. error:  0.12E+00 at (  13,   1,  12)
       Max VN number:   0.67E-03 at (  16,   5,  16)
       Mesh    4
       Max CFL number:  0.28E+00 at (   4,   4,   1)
       Max divergence:  0.11E+00 at (   1,   5,  16)
       Min divergence: -0.11E+00 at (   1,   1,  12)
       Max div. error:  0.11E+00 at (   1,   1,  12)
       Max VN number:   0.67E-03 at (   1,   5,  16)
       Mesh    5
       Max CFL number:  0.39E+00 at (  13,   1,   4)
       Max divergence:  0.12E+00 at (  16,   9,   1)
       Min divergence: -0.21E+00 at (  16,  12,   1)
       Max div. error:  0.21E+00 at (  16,  12,   1)
       Max VN number:   0.66E-03 at (  16,  16,   5)
       Mesh    6
       Max CFL number:  0.40E+00 at (   4,   1,   4)
       Max divergence:  0.11E+00 at (   1,   9,   1)
       Min divergence: -0.20E+00 at (   1,  12,   1)
       Max div. error:  0.20E+00 at (   1,  12,   1)
       Max VN number:   0.66E-03 at (   1,  16,   5)
       Mesh    7
       Max CFL number:  0.17E+00 at (   1,   4,   4)
       Max divergence:  0.11E+00 at (  16,   5,   1)
       Min divergence: -0.95E-01 at (  16,   8,   1)
       Max div. error:  0.11E+00 at (  16,   5,   1)
       Max VN number:   0.67E-03 at (  16,   5,   1)
       Mesh    8
       Max CFL number:  0.22E-01 at (   7,   1,   1)
       Max divergence:  0.12E+00 at (   1,   5,   1)
       Min divergence: -0.96E-01 at (   1,   8,   1)
       Max div. error:  0.12E+00 at (   1,   5,   1)
       Max VN number:   0.67E-03 at (   1,   5,   1)
 
       Time Step       9   October 28, 2020  15:46:58
       Step Size:    0.352E-02 s, Total Time:       0.03 s
       Pressure Iterations:      1
       Maximum Velocity Error:  0.14E-16 on Mesh   1 at (   2  17   2)
       Maximum Pressure Error:  0.22E+03 on Mesh   2 at (   1  13  13)
       ScaRC: iterations    37, residual  0.93E-08, convergence rate   0.47E+00
       ---------------------------------------------------------------
       Mesh    1
       Max CFL number:  0.41E+00 at (  13,   1,  13)
       Max divergence:  0.10E+00 at (  16,   9,  16)
       Min divergence: -0.22E+00 at (  16,  12,  16)
       Max div. error:  0.22E+00 at (  16,  12,  16)
       Max VN number:   0.72E-03 at (  16,  11,  16)
       Mesh    2
       Max CFL number:  0.42E+00 at (   4,   1,  13)
       Max divergence:  0.99E-01 at (   1,   9,  16)
       Min divergence: -0.21E+00 at (   1,  12,  16)
       Max div. error:  0.21E+00 at (   1,  12,  16)
       Max VN number:   0.73E-03 at (   5,  16,  16)
       Mesh    3
       Max CFL number:  0.29E+00 at (  13,   4,   1)
       Max divergence:  0.94E-01 at (  16,   5,  16)
       Min divergence: -0.12E+00 at (  13,   1,  12)
       Max div. error:  0.12E+00 at (  13,   1,  12)
       Max VN number:   0.73E-03 at (  16,   5,  16)
       Mesh    4
       Max CFL number:  0.30E+00 at (   4,   4,   1)
       Max divergence:  0.10E+00 at (   1,   5,  16)
       Min divergence: -0.11E+00 at (   1,   1,  12)
       Max div. error:  0.11E+00 at (   1,   1,  12)
       Max VN number:   0.73E-03 at (   1,   5,  16)
       Mesh    5
       Max CFL number:  0.42E+00 at (  13,   1,   4)
       Max divergence:  0.99E-01 at (  16,   9,   1)
       Min divergence: -0.20E+00 at (  16,  12,   1)
       Max div. error:  0.21E+00 at (  16,  12,   1)
       Max VN number:   0.73E-03 at (  16,  16,   5)
       Mesh    6
       Max CFL number:  0.41E+00 at (   4,   1,   4)
       Max divergence:  0.97E-01 at (   1,   9,   1)
       Min divergence: -0.20E+00 at (   1,  12,   1)
       Max div. error:  0.20E+00 at (   1,  12,   1)
       Max VN number:   0.73E-03 at (   1,  16,   5)
       Mesh    7
       Max CFL number:  0.18E+00 at (   1,   4,   4)
       Max divergence:  0.10E+00 at (  16,   5,   1)
       Min divergence: -0.82E-01 at (  16,   8,   1)
       Max div. error:  0.10E+00 at (  16,   5,   1)
       Max VN number:   0.73E-03 at (  16,   5,   1)
       Mesh    8
       Max CFL number:  0.25E-01 at (   7,   1,   1)
       Max divergence:  0.11E+00 at (   1,   5,   1)
       Min divergence: -0.84E-01 at (   1,   8,   1)
       Max div. error:  0.11E+00 at (   1,   5,   1)
       Max VN number:   0.73E-03 at (   1,   5,   1)
 
       Time Step      10   October 28, 2020  15:47:00
       Step Size:    0.352E-02 s, Total Time:       0.03 s
       Pressure Iterations:      1
       Maximum Velocity Error:  0.14E-16 on Mesh   1 at (   1  17   2)
       Maximum Pressure Error:  0.23E+03 on Mesh   2 at (   1  13  13)
       ScaRC: iterations    37, residual  0.85E-08, convergence rate   0.47E+00
       ---------------------------------------------------------------
       Mesh    1
       Max CFL number:  0.40E+00 at (  13,   1,  13)
       Max divergence:  0.78E-01 at (  16,   9,  16)
       Min divergence: -0.20E+00 at (  16,  12,  16)
       Max div. error:  0.20E+00 at (  16,  12,  16)
       Max VN number:   0.72E-03 at (  16,  11,  16)
       Mesh    2
       Max CFL number:  0.40E+00 at (   4,   1,  13)
       Max divergence:  0.77E-01 at (   1,   9,  16)
       Min divergence: -0.19E+00 at (   1,  12,  16)
       Max div. error:  0.20E+00 at (   1,  12,  16)
       Max VN number:   0.73E-03 at (   5,  16,  16)
       Mesh    3
       Max CFL number:  0.28E+00 at (  13,   4,   1)
       Max divergence:  0.78E-01 at (  16,   5,  16)
       Min divergence: -0.11E+00 at (  13,   1,  12)
       Max div. error:  0.11E+00 at (  13,   1,  12)
       Max VN number:   0.73E-03 at (  16,   5,  16)
       Mesh    4
       Max CFL number:  0.29E+00 at (   4,   4,   1)
       Max divergence:  0.83E-01 at (   1,   5,  16)
       Min divergence: -0.98E-01 at (   1,   1,  12)
       Max div. error:  0.10E+00 at (   1,   1,  12)
       Max VN number:   0.73E-03 at (   1,   5,  16)
       Mesh    5
       Max CFL number:  0.40E+00 at (  13,   1,   4)
       Max divergence:  0.77E-01 at (  16,   9,   1)
       Min divergence: -0.19E+00 at (  16,  12,   1)
       Max div. error:  0.19E+00 at (  16,  12,   1)
       Max VN number:   0.73E-03 at (  16,  16,   5)
       Mesh    6
       Max CFL number:  0.40E+00 at (   4,   1,   4)
       Max divergence:  0.75E-01 at (   1,   9,   1)
       Min divergence: -0.18E+00 at (   1,  12,   1)
       Max div. error:  0.19E+00 at (   1,  12,   1)
       Max VN number:   0.73E-03 at (   1,  16,   5)
       Mesh    7
       Max CFL number:  0.18E+00 at (   1,   4,   4)
       Max divergence:  0.83E-01 at (  16,   5,   1)
       Min divergence: -0.65E-01 at (  16,   8,   1)
       Max div. error:  0.86E-01 at (  16,   5,   1)
       Max VN number:   0.73E-03 at (  16,   5,   1)
       Mesh    8
       Max CFL number:  0.25E-01 at (   7,   1,   1)
       Max divergence:  0.88E-01 at (   1,   5,   1)
       Min divergence: -0.66E-01 at (   1,   8,   1)
       Max div. error:  0.91E-01 at (   1,   5,   1)
       Max VN number:   0.73E-03 at (   1,   5,   1)
 
       Time Step      20   October 28, 2020  15:47:26
       Step Size:    0.469E-02 s, Total Time:       0.07 s
       Pressure Iterations:      1
       Maximum Velocity Error:  0.14E-16 on Mesh   1 at (  17   3  10)
       Maximum Pressure Error:  0.35E+03 on Mesh   2 at (   4  13  13)
       ScaRC: iterations    37, residual  0.38E-08, convergence rate   0.47E+00
       ---------------------------------------------------------------
       Mesh    1
       Max CFL number:  0.41E+00 at (  16,   3,  13)
       Max divergence:  0.91E-01 at (  16,  16,  12)
       Min divergence: -0.21E+00 at (  12,  16,  16)
       Max div. error:  0.21E+00 at (  12,  16,  16)
       Max VN number:   0.96E-03 at (  16,  11,  16)
       Mesh    2
       Max CFL number:  0.43E+00 at (   4,   3,  16)
       Max divergence:  0.90E-01 at (   1,  16,  12)
       Min divergence: -0.15E+00 at (   1,  12,  16)
       Max div. error:  0.16E+00 at (   1,  12,  16)
       Max VN number:   0.97E-03 at (   5,  16,  16)
       Mesh    3
       Max CFL number:  0.28E+00 at (   1,   4,  13)
       Max divergence:  0.92E-01 at (  16,   1,  12)
       Min divergence: -0.21E+00 at (  12,   1,  16)
       Max div. error:  0.21E+00 at (  12,   1,  16)
       Max VN number:   0.98E-03 at (  16,   5,  16)
       Mesh    4
       Max CFL number:  0.25E+00 at (   3,   3,   3)
       Max divergence:  0.90E-01 at (   1,   1,  12)
       Min divergence: -0.14E-01 at (   1,  10,  16)
       Max div. error:  0.87E-01 at (   1,   1,  12)
       Max VN number:   0.98E-03 at (   1,   5,  16)
       Mesh    5
       Max CFL number:  0.43E+00 at (  16,   3,   4)
       Max divergence:  0.23E-01 at (  16,   5,   1)
       Min divergence: -0.20E+00 at (  12,  16,   1)
       Max div. error:  0.20E+00 at (  12,  16,   1)
       Max VN number:   0.97E-03 at (  16,  16,   5)
       Mesh    6
       Max CFL number:  0.43E+00 at (   1,   3,   4)
       Max divergence:  0.43E-01 at (   5,  13,   1)
       Min divergence: -0.15E+00 at (   1,  12,   1)
       Max div. error:  0.15E+00 at (   1,  12,   1)
       Max VN number:   0.97E-03 at (   1,  16,   5)
       Mesh    7
       Max CFL number:  0.27E+00 at (   1,   4,   4)
       Max divergence:  0.13E-01 at (  14,   5,   1)
       Min divergence: -0.20E+00 at (  12,   1,   1)
       Max div. error:  0.20E+00 at (  12,   1,   1)
       Max VN number:   0.98E-03 at (  16,   5,   1)
       Mesh    8
       Max CFL number:  0.32E-01 at (   7,   1,   1)
       Max divergence:  0.34E-01 at (   5,   1,   1)
       Min divergence: -0.14E-01 at (   1,  10,   1)
       Max div. error:  0.37E-01 at (   5,   1,   1)
       Max VN number:   0.98E-03 at (   1,   5,   1)
 
       Time Step      30   October 28, 2020  15:47:52
       Step Size:    0.469E-02 s, Total Time:       0.12 s
       Pressure Iterations:      1
       Maximum Velocity Error:  0.14E-16 on Mesh   1 at (  17   3   9)
       Maximum Pressure Error:  0.69E+03 on Mesh   2 at (   4  13  13)
       ScaRC: iterations    36, residual  0.48E-08, convergence rate   0.47E+00
       ---------------------------------------------------------------
       Mesh    1
       Max CFL number:  0.40E+00 at (  15,   4,  13)
       Max divergence:  0.18E+00 at (  16,  16,  12)
       Min divergence: -0.19E+00 at (  12,  16,  16)
       Max div. error:  0.20E+00 at (  12,  16,  16)
       Max VN number:   0.96E-03 at (  16,  11,  16)
       Mesh    2
       Max CFL number:  0.40E+00 at (   4,   4,  15)
       Max divergence:  0.18E+00 at (   1,  16,  12)
       Min divergence: -0.13E+00 at (   1,  12,  16)
       Max div. error:  0.18E+00 at (   1,  16,  12)
       Max VN number:   0.97E-03 at (   5,  16,  16)
       Mesh    3
       Max CFL number:  0.36E+00 at (   1,   4,  13)
       Max divergence:  0.18E+00 at (  16,   1,  12)
       Min divergence: -0.20E+00 at (  12,   1,  16)
       Max div. error:  0.20E+00 at (  12,   1,  16)
       Max VN number:   0.97E-03 at (  16,   5,  16)
       Mesh    4
       Max CFL number:  0.19E+00 at (   4,   4,   1)
       Max divergence:  0.17E+00 at (   1,   1,  12)
       Min divergence: -0.31E-01 at (   1,   5,  16)
       Max div. error:  0.17E+00 at (   1,   1,  12)
       Max VN number:   0.98E-03 at (   1,   5,  16)
       Mesh    5
       Max CFL number:  0.41E+00 at (  15,   4,   4)
       Max divergence:  0.38E-01 at (  16,  13,   5)
       Min divergence: -0.19E+00 at (  12,  16,   1)
       Max div. error:  0.19E+00 at (  12,  16,   1)
       Max VN number:   0.97E-03 at (  16,  16,   5)
       Mesh    6
       Max CFL number:  0.41E+00 at (   4,   4,   2)
       Max divergence:  0.70E-01 at (   5,  13,   1)
       Min divergence: -0.13E+00 at (   1,  12,   1)
       Max div. error:  0.14E+00 at (   1,  12,   1)
       Max VN number:   0.98E-03 at (   5,  16,   1)
       Mesh    7
       Max CFL number:  0.36E+00 at (   1,   4,   4)
       Max divergence:  0.60E-02 at (   1,   1,   1)
       Min divergence: -0.19E+00 at (  12,   1,   1)
       Max div. error:  0.19E+00 at (  12,   1,   1)
       Max VN number:   0.98E-03 at (  16,   5,   1)
       Mesh    8
       Max CFL number:  0.32E-01 at (   1,   1,   7)
       Max divergence:  0.13E-01 at (   5,   1,   2)
       Min divergence: -0.37E-01 at (   1,   1,   5)
       Max div. error:  0.34E-01 at (   1,   1,   5)
       Max VN number:   0.98E-03 at (   1,   5,   1)
 
       Time Step      40   October 28, 2020  15:48:18
       Step Size:    0.469E-02 s, Total Time:       0.17 s
       Pressure Iterations:      1
       Maximum Velocity Error:  0.69E-17 on Mesh   1 at (   1   1  17)
       Maximum Pressure Error:  0.11E+04 on Mesh   1 at (  13  13  13)
       ScaRC: iterations    35, residual  0.77E-08, convergence rate   0.47E+00
       ---------------------------------------------------------------
       Mesh    1
       Max CFL number:  0.42E+00 at (   1,  13,  16)
       Max divergence:  0.68E-02 at (  16,   1,  16)
       Min divergence: -0.20E+00 at (  12,  16,  16)
       Max div. error:  0.20E+00 at (  12,  16,  16)
       Max VN number:   0.96E-03 at (  16,  11,  16)
       Mesh    2
       Max CFL number:  0.39E+00 at (   4,   6,  13)
       Max divergence:  0.16E+00 at (   5,  13,  16)
       Min divergence: -0.15E+00 at (   1,  16,  12)
       Max div. error:  0.16E+00 at (   5,  13,  16)
       Max VN number:   0.97E-03 at (   5,  16,  16)
       Mesh    3
       Max CFL number:  0.41E+00 at (   1,   1,  13)
       Max divergence:  0.83E-01 at (  13,   5,  16)
       Min divergence: -0.20E+00 at (  12,   1,  16)
       Max div. error:  0.21E+00 at (  12,   1,  16)
       Max VN number:   0.97E-03 at (  16,   5,  16)
       Mesh    4
       Max CFL number:  0.19E+00 at (   4,   3,   1)
       Max divergence:  0.11E+00 at (   5,   1,  16)
       Min divergence: -0.16E+00 at (   1,   1,  12)
       Max div. error:  0.16E+00 at (   1,   1,  12)
       Max VN number:   0.98E-03 at (   5,   1,  16)
       Mesh    5
       Max CFL number:  0.42E+00 at (   1,  13,   1)
       Max divergence:  0.15E+00 at (  16,  13,   5)
       Min divergence: -0.20E+00 at (  12,  16,   1)
       Max div. error:  0.20E+00 at (  12,  16,   1)
       Max VN number:   0.97E-03 at (  16,  16,   5)
       Mesh    6
       Max CFL number:  0.40E+00 at (   4,   6,   4)
       Max divergence:  0.16E+00 at (   5,  13,   1)
       Min divergence: -0.11E+00 at (   1,  12,   1)
       Max div. error:  0.16E+00 at (   5,  13,   1)
       Max VN number:   0.98E-03 at (   5,  16,   1)
       Mesh    7
       Max CFL number:  0.41E+00 at (   1,   4,   1)
       Max divergence:  0.12E+00 at (  16,   1,   5)
       Min divergence: -0.20E+00 at (  12,   1,   1)
       Max div. error:  0.21E+00 at (  12,   1,   1)
       Max VN number:   0.98E-03 at (  16,   5,   1)
       Mesh    8
       Max CFL number:  0.33E-01 at (   1,   1,   8)
       Max divergence:  0.11E+00 at (   1,   1,   5)
       Min divergence: -0.73E-03 at (   2,   2,   5)
       Max div. error:  0.11E+00 at (   1,   1,   5)
       Max VN number:   0.98E-03 at (   5,   1,   1)
 
       Time Step      50   October 28, 2020  15:48:44
       Step Size:    0.469E-02 s, Total Time:       0.21 s
       Pressure Iterations:      1
       Maximum Velocity Error:  0.14E-16 on Mesh   1 at (  17   4   3)
       Maximum Pressure Error:  0.92E+03 on Mesh   3 at (  13   4  13)
       ScaRC: iterations    35, residual  0.84E-08, convergence rate   0.47E+00
       ---------------------------------------------------------------
       Mesh    1
       Max CFL number:  0.47E+00 at (   1,  13,  13)
       Max divergence:  0.14E-01 at (  14,  12,  16)
       Min divergence: -0.26E+00 at (  12,  16,  16)
       Max div. error:  0.26E+00 at (  12,  16,  16)
       Max VN number:   0.96E-03 at (  16,  11,  16)
       Mesh    2
       Max CFL number:  0.40E+00 at (   4,   7,  13)
       Max divergence:  0.17E+00 at (   5,  13,  16)
       Min divergence: -0.17E+00 at (   1,  16,  12)
       Max div. error:  0.18E+00 at (   5,  13,  16)
       Max VN number:   0.98E-03 at (   5,  16,  16)
       Mesh    3
       Max CFL number:  0.47E+00 at (   1,   4,  13)
       Max divergence:  0.12E+00 at (  13,   5,  16)
       Min divergence: -0.26E+00 at (  12,   1,  16)
       Max div. error:  0.27E+00 at (  12,   1,  16)
       Max VN number:   0.98E-03 at (  16,   5,  16)
       Mesh    4
       Max CFL number:  0.21E+00 at (   4,   2,   3)
       Max divergence:  0.11E+00 at (   5,   1,  16)
       Min divergence: -0.17E+00 at (   1,   1,  12)
       Max div. error:  0.18E+00 at (   1,   1,  12)
       Max VN number:   0.99E-03 at (   5,   1,  16)
       Mesh    5
       Max CFL number:  0.47E+00 at (   1,  13,   4)
       Max divergence:  0.17E+00 at (  16,  13,   5)
       Min divergence: -0.26E+00 at (  12,  16,   1)
       Max div. error:  0.27E+00 at (  12,  16,   1)
       Max VN number:   0.98E-03 at (  16,  16,   5)
       Mesh    6
       Max CFL number:  0.41E+00 at (   4,   7,   4)
       Max divergence:  0.17E+00 at (   5,  13,   1)
       Min divergence: -0.92E-01 at (   4,  12,   1)
       Max div. error:  0.18E+00 at (   5,  13,   1)
       Max VN number:   0.99E-03 at (   5,  16,   1)
       Mesh    7
       Max CFL number:  0.47E+00 at (   1,   4,   4)
       Max divergence:  0.15E+00 at (  13,   1,   5)
       Min divergence: -0.27E+00 at (  12,   1,   1)
       Max div. error:  0.27E+00 at (  12,   1,   1)
       Max VN number:   0.98E-03 at (  16,   1,   5)
       Mesh    8
       Max CFL number:  0.36E-01 at (   1,   1,   8)
       Max divergence:  0.12E+00 at (   1,   1,   5)
       Min divergence: -0.86E-03 at (   2,   2,   5)
       Max div. error:  0.13E+00 at (   1,   1,   5)
       Max VN number:   0.99E-03 at (   5,   1,   1)
 
       Time Step      60   October 28, 2020  15:49:12
       Step Size:    0.421E-02 s, Total Time:       0.26 s
       Pressure Iterations:      1
       Maximum Velocity Error:  0.14E-16 on Mesh   1 at (  17   1   1)
       Maximum Pressure Error:  0.25E+04 on Mesh   1 at (  13  13  13)
       ScaRC: iterations    36, residual  0.49E-08, convergence rate   0.47E+00
       ---------------------------------------------------------------
       Mesh    1
       Max CFL number:  0.44E+00 at (   1,  13,  13)
       Max divergence:  0.18E-02 at (  16,   1,  16)
       Min divergence: -0.31E+00 at (  12,  16,  16)
       Max div. error:  0.32E+00 at (  12,  16,  16)
       Max VN number:   0.86E-03 at (  16,  11,  16)
       Mesh    2
       Max CFL number:  0.42E+00 at (   3,   4,  14)
       Max divergence:  0.22E+00 at (   5,  13,  16)
       Min divergence: -0.28E+00 at (   1,  12,  16)
       Max div. error:  0.28E+00 at (   1,  12,  16)
       Max VN number:   0.89E-03 at (   5,  16,  16)
       Mesh    3
       Max CFL number:  0.44E+00 at (   1,   4,  13)
       Max divergence:  0.24E+00 at (  13,   5,  16)
       Min divergence: -0.33E+00 at (  12,   1,  16)
       Max div. error:  0.34E+00 at (  12,   1,  16)
       Max VN number:   0.88E-03 at (  16,   5,  16)
       Mesh    4
       Max CFL number:  0.33E+00 at (   4,   4,   1)
       Max divergence:  0.18E+00 at (   1,   5,  16)
       Min divergence: -0.16E+00 at (   1,   1,  12)
       Max div. error:  0.18E+00 at (   1,   5,  16)
       Max VN number:   0.90E-03 at (   5,   1,  16)
       Mesh    5
       Max CFL number:  0.44E+00 at (   6,  13,   4)
       Max divergence:  0.24E+00 at (  13,  16,   5)
       Min divergence: -0.32E+00 at (  12,  16,   1)
       Max div. error:  0.33E+00 at (  12,  16,   1)
       Max VN number:   0.89E-03 at (  16,  16,   5)
       Mesh    6
       Max CFL number:  0.44E+00 at (   3,   4,   3)
       Max divergence:  0.23E+00 at (   1,  14,   5)
       Min divergence: -0.30E+00 at (   1,  12,   1)
       Max div. error:  0.30E+00 at (   1,  12,   1)
       Max VN number:   0.90E-03 at (   5,  16,   1)
       Mesh    7
       Max CFL number:  0.46E+00 at (   6,   4,   4)
       Max divergence:  0.24E+00 at (  13,   1,   5)
       Min divergence: -0.34E+00 at (  12,   1,   1)
       Max div. error:  0.34E+00 at (  12,   1,   1)
       Max VN number:   0.90E-03 at (  16,   1,   5)
       Mesh    8
       Max CFL number:  0.38E-01 at (   1,   5,   1)
       Max divergence:  0.19E+00 at (   1,   1,   5)
       Min divergence: -0.12E-02 at (   2,   5,   2)
       Max div. error:  0.20E+00 at (   1,   1,   5)
       Max VN number:   0.90E-03 at (   5,   1,   1)
 
       Time Step      70   October 28, 2020  15:49:38
       Step Size:    0.421E-02 s, Total Time:       0.30 s
       Pressure Iterations:      1
       Maximum Velocity Error:  0.28E-16 on Mesh   1 at (  17   3  10)
       Maximum Pressure Error:  0.30E+04 on Mesh   1 at (  13  13  13)
       ScaRC: iterations    36, residual  0.64E-08, convergence rate   0.47E+00
       ---------------------------------------------------------------
       Mesh    1
       Max CFL number:  0.47E+00 at (   7,  13,  13)
       Max divergence:  0.60E-03 at (  16,  16,   2)
       Min divergence: -0.44E+00 at (  12,  16,  16)
       Max div. error:  0.45E+00 at (  12,  16,  16)
       Max VN number:   0.86E-03 at (  16,  11,  16)
       Mesh    2
       Max CFL number:  0.42E+00 at (   3,   6,  14)
       Max divergence:  0.30E+00 at (   5,  14,  16)
       Min divergence: -0.42E+00 at (   1,  12,  16)
       Max div. error:  0.42E+00 at (   1,  12,  16)
       Max VN number:   0.91E-03 at (   5,  16,  16)
       Mesh    3
       Max CFL number:  0.48E+00 at (   7,   4,  13)
       Max divergence:  0.36E+00 at (  13,   5,  16)
       Min divergence: -0.47E+00 at (  12,   1,  16)
       Max div. error:  0.47E+00 at (  12,   1,  16)
       Max VN number:   0.90E-03 at (  16,   5,  16)
       Mesh    4
       Max CFL number:  0.39E+00 at (   4,   4,   1)
       Max divergence:  0.26E+00 at (   1,   5,  16)
       Min divergence: -0.19E+00 at (   1,   1,  12)
       Max div. error:  0.27E+00 at (   1,   5,  16)
       Max VN number:   0.91E-03 at (   5,   1,  16)
       Mesh    5
       Max CFL number:  0.48E+00 at (   7,  13,   4)
       Max divergence:  0.37E+00 at (  13,  16,   5)
       Min divergence: -0.46E+00 at (  12,  16,   1)
       Max div. error:  0.46E+00 at (  12,  16,   1)
       Max VN number:   0.91E-03 at (  16,  16,   5)
       Mesh    6
       Max CFL number:  0.47E+00 at (   3,   5,   3)
       Max divergence:  0.32E+00 at (   1,  14,   5)
       Min divergence: -0.44E+00 at (   1,  12,   1)
       Max div. error:  0.45E+00 at (   1,  12,   1)
       Max VN number:   0.92E-03 at (   5,  16,   1)
       Mesh    7
       Max CFL number:  0.48E+00 at (   7,   4,   4)
       Max divergence:  0.37E+00 at (  13,   1,   5)
       Min divergence: -0.48E+00 at (  12,   1,   1)
       Max div. error:  0.49E+00 at (  12,   1,   1)
       Max VN number:   0.91E-03 at (  16,   1,   5)
       Mesh    8
       Max CFL number:  0.45E-01 at (   1,   5,   1)
       Max divergence:  0.27E+00 at (   1,   1,   5)
       Min divergence: -0.16E-02 at (   2,   5,   2)
       Max div. error:  0.27E+00 at (   1,   1,   5)
       Max VN number:   0.92E-03 at (   5,   1,   1)
 
       Time Step      80   October 28, 2020  15:50:06
       Step Size:    0.327E-02 s, Total Time:       0.33 s
       Pressure Iterations:      1
       Maximum Velocity Error:  0.28E-16 on Mesh   1 at (  17   3  10)
       Maximum Pressure Error:  0.27E+04 on Mesh   1 at (  13  13  13)
       ScaRC: iterations    36, residual  0.80E-08, convergence rate   0.47E+00
       ---------------------------------------------------------------
       Mesh    1
       Max CFL number:  0.40E+00 at (  14,   5,  14)
       Max divergence:  0.14E-01 at (  13,  16,  12)
       Min divergence: -0.40E+00 at (  12,  16,  16)
       Max div. error:  0.40E+00 at (  12,  16,  16)
       Max VN number:   0.67E-03 at (  16,  11,  16)
       Mesh    2
       Max CFL number:  0.43E+00 at (   3,   5,  14)
       Max divergence:  0.28E+00 at (   5,  13,  16)
       Min divergence: -0.39E+00 at (   2,  12,  16)
       Max div. error:  0.39E+00 at (   2,  12,  16)
       Max VN number:   0.71E-03 at (   5,  16,  16)
       Mesh    3
       Max CFL number:  0.36E+00 at (   6,   4,  14)
       Max divergence:  0.36E+00 at (  13,   5,  16)
       Min divergence: -0.43E+00 at (  12,   1,  16)
       Max div. error:  0.44E+00 at (  12,   1,  16)
       Max VN number:   0.70E-03 at (  16,   5,  16)
       Mesh    4
       Max CFL number:  0.31E+00 at (   4,   4,   1)
       Max divergence:  0.22E+00 at (   1,   5,  14)
       Min divergence: -0.15E+00 at (   1,   1,  12)
       Max div. error:  0.23E+00 at (   1,   5,  14)
       Max VN number:   0.72E-03 at (   5,   1,  16)
       Mesh    5
       Max CFL number:  0.42E+00 at (  14,   5,   3)
       Max divergence:  0.37E+00 at (  13,  16,   5)
       Min divergence: -0.42E+00 at (  12,  16,   1)
       Max div. error:  0.43E+00 at (  12,  16,   1)
       Max VN number:   0.72E-03 at (  16,  16,   5)
       Mesh    6
       Max CFL number:  0.45E+00 at (   3,   5,   3)
       Max divergence:  0.30E+00 at (   1,  14,   5)
       Min divergence: -0.40E+00 at (   1,  12,   1)
       Max div. error:  0.40E+00 at (   1,  12,   1)
       Max VN number:   0.72E-03 at (   1,  14,   5)
       Mesh    7
       Max CFL number:  0.36E+00 at (   6,   4,   3)
       Max divergence:  0.37E+00 at (  13,   1,   5)
       Min divergence: -0.46E+00 at (  12,   1,   1)
       Max div. error:  0.46E+00 at (  12,   1,   1)
       Max VN number:   0.72E-03 at (  16,   1,   5)
       Mesh    8
       Max CFL number:  0.39E-01 at (   1,   1,   8)
       Max divergence:  0.23E+00 at (   1,   1,   5)
       Min divergence: -0.23E-02 at (   2,   5,   2)
       Max div. error:  0.24E+00 at (   1,   1,   5)
       Max VN number:   0.72E-03 at (   1,   1,   5)
 
       Time Step      90   October 28, 2020  15:50:32
       Step Size:    0.327E-02 s, Total Time:       0.37 s
       Pressure Iterations:      1
       Maximum Velocity Error:  0.56E-16 on Mesh   1 at (  14   6  17)
       Maximum Pressure Error:  0.24E+04 on Mesh   5 at (  13  13   2)
       ScaRC: iterations    36, residual  0.97E-08, convergence rate   0.47E+00
       ---------------------------------------------------------------
       Mesh    1
       Max CFL number:  0.40E+00 at (  14,   5,  14)
       Max divergence:  0.42E-01 at (  13,  16,  12)
       Min divergence: -0.43E+00 at (  12,  16,  16)
       Max div. error:  0.43E+00 at (  12,  16,  16)
       Max VN number:   0.66E-03 at (  14,  11,  16)
       Mesh    2
       Max CFL number:  0.33E+00 at (   1,   8,  13)
       Max divergence:  0.36E+00 at (   5,  13,  16)
       Min divergence: -0.50E+00 at (   2,  12,  16)
       Max div. error:  0.51E+00 at (   2,  12,  16)
       Max VN number:   0.72E-03 at (   5,  16,  16)
       Mesh    3
       Max CFL number:  0.39E+00 at (   7,   4,  14)
       Max divergence:  0.44E+00 at (  13,   5,  16)
       Min divergence: -0.48E+00 at (  12,   1,  16)
       Max div. error:  0.48E+00 at (  12,   1,  16)
       Max VN number:   0.71E-03 at (  16,   5,  16)
       Mesh    4
       Max CFL number:  0.32E+00 at (   4,   4,   1)
       Max divergence:  0.27E+00 at (   1,   5,  13)
       Min divergence: -0.16E+00 at (   1,   1,  12)
       Max div. error:  0.28E+00 at (   1,   5,  14)
       Max VN number:   0.72E-03 at (   5,   1,  16)
       Mesh    5
       Max CFL number:  0.38E+00 at (   7,  14,   4)
       Max divergence:  0.46E+00 at (  13,  16,   5)
       Min divergence: -0.47E+00 at (  16,  12,   2)
       Max div. error:  0.48E+00 at (  16,  12,   2)
       Max VN number:   0.73E-03 at (  16,  16,   5)
       Mesh    6
       Max CFL number:  0.36E+00 at (   3,   4,   3)
       Max divergence:  0.38E+00 at (   1,  13,   5)
       Min divergence: -0.50E+00 at (   2,  12,   1)
       Max div. error:  0.51E+00 at (   2,  12,   1)
       Max VN number:   0.74E-03 at (   1,  14,   5)
       Mesh    7
       Max CFL number:  0.40E+00 at (   7,   4,   4)
       Max divergence:  0.46E+00 at (  13,   1,   5)
       Min divergence: -0.51E+00 at (  12,   1,   1)
       Max div. error:  0.52E+00 at (  12,   1,   1)
       Max VN number:   0.74E-03 at (  16,   1,   5)
       Mesh    8
       Max CFL number:  0.43E-01 at (   1,   1,   8)
       Max divergence:  0.27E+00 at (   1,   1,   5)
       Min divergence: -0.32E-02 at (   2,   5,   2)
       Max div. error:  0.28E+00 at (   1,   1,   5)
       Max VN number:   0.74E-03 at (   1,   1,   5)
 
       Time Step     100   October 28, 2020  15:50:58
       Step Size:    0.327E-02 s, Total Time:       0.40 s
       Pressure Iterations:      1
       Maximum Velocity Error:  0.14E-16 on Mesh   1 at (  17   2   1)
       Maximum Pressure Error:  0.32E+04 on Mesh   5 at (  13  13   2)
       ScaRC: iterations    37, residual  0.46E-08, convergence rate   0.47E+00
       ---------------------------------------------------------------
       Mesh    1
       Max CFL number:  0.36E+00 at (  14,   4,  14)
       Max divergence:  0.25E-01 at (  13,  16,  12)
       Min divergence: -0.45E+00 at (  12,  16,  16)
       Max div. error:  0.46E+00 at (  12,  16,  16)
       Max VN number:   0.66E-03 at (  14,  11,  16)
       Mesh    2
       Max CFL number:  0.36E+00 at (   3,   4,  14)
       Max divergence:  0.50E+00 at (   5,  13,  16)
       Min divergence: -0.67E+00 at (   3,  12,  16)
       Max div. error:  0.68E+00 at (   3,  12,  16)
       Max VN number:   0.72E-03 at (   5,  16,  16)
       Mesh    3
       Max CFL number:  0.41E+00 at (   8,   4,  13)
       Max divergence:  0.54E+00 at (  13,   5,  16)
       Min divergence: -0.59E+00 at (  12,   2,  16)
       Max div. error:  0.60E+00 at (  12,   2,  16)
       Max VN number:   0.72E-03 at (  16,   5,  16)
       Mesh    4
       Max CFL number:  0.34E+00 at (   4,   4,   1)
       Max divergence:  0.36E+00 at (   1,   5,  13)
       Min divergence: -0.24E+00 at (   1,   1,  12)
       Max div. error:  0.36E+00 at (   1,   5,  13)
       Max VN number:   0.73E-03 at (   5,   1,  16)
       Mesh    5
       Max CFL number:  0.41E+00 at (   8,  13,   4)
       Max divergence:  0.57E+00 at (  13,  16,   5)
       Min divergence: -0.61E+00 at (  16,  12,   3)
       Max div. error:  0.62E+00 at (  16,  12,   3)
       Max VN number:   0.74E-03 at (  16,  16,   5)
       Mesh    6
       Max CFL number:  0.42E+00 at (   3,   4,   3)
       Max divergence:  0.54E+00 at (   1,  13,   5)
       Min divergence: -0.67E+00 at (   3,  12,   1)
       Max div. error:  0.68E+00 at (   3,  12,   1)
       Max VN number:   0.76E-03 at (   1,  14,   5)
       Mesh    7
       Max CFL number:  0.46E+00 at (   8,   4,   4)
       Max divergence:  0.57E+00 at (  13,   1,   5)
       Min divergence: -0.59E+00 at (  12,   2,   1)
       Max div. error:  0.60E+00 at (  12,   2,   1)
       Max VN number:   0.76E-03 at (  14,   1,   5)
       Mesh    8
       Max CFL number:  0.47E-01 at (   1,   1,   9)
       Max divergence:  0.35E+00 at (   1,   1,   5)
       Min divergence: -0.42E-02 at (   2,   5,   2)
       Max div. error:  0.36E+00 at (   1,   1,   5)
       Max VN number:   0.75E-03 at (   1,   1,   5)
 
       Time Step     131   October 28, 2020  15:52:20
       Step Size:    0.195E-02 s, Total Time:       0.50 s
       Pressure Iterations:      1
       Maximum Velocity Error:  0.28E-16 on Mesh   1 at (   6  10  17)
       Maximum Pressure Error:  0.27E+04 on Mesh   1 at (  13  13  13)
       ScaRC: iterations    37, residual  0.75E-08, convergence rate   0.47E+00
       ---------------------------------------------------------------
       Mesh    1
       Max CFL number:  0.24E+00 at (  10,  11,  15)
       Max divergence:  0.59E-03 at (  12,  13,  14)
       Min divergence: -0.43E+00 at (  16,  12,  15)
       Max div. error:  0.43E+00 at (  16,  12,  16)
       Max VN number:   0.39E-03 at (   8,   7,  16)
       Mesh    2
       Max CFL number:  0.25E+00 at (   4,  12,  14)
       Max divergence:  0.46E+00 at (   5,  13,  16)
       Min divergence: -0.65E+00 at (   4,  12,  16)
       Max div. error:  0.66E+00 at (   4,  12,  16)
       Max VN number:   0.44E-03 at (   5,  16,  16)
       Mesh    3
       Max CFL number:  0.23E+00 at (  13,   4,   7)
       Max divergence:  0.50E+00 at (  13,   5,  16)
       Min divergence: -0.56E+00 at (  12,   4,  16)
       Max div. error:  0.57E+00 at (  12,   4,  16)
       Max VN number:   0.45E-03 at (  16,   5,  16)
       Mesh    4
       Max CFL number:  0.26E+00 at (   4,   4,   8)
       Max divergence:  0.46E+00 at (   1,   5,  13)
       Min divergence: -0.38E+00 at (   1,   3,  12)
       Max div. error:  0.47E+00 at (   1,   5,  13)
       Max VN number:   0.46E-03 at (   1,   5,  14)
       Mesh    5
       Max CFL number:  0.23E+00 at (  14,   2,   3)
       Max divergence:  0.54E+00 at (  14,  16,   5)
       Min divergence: -0.63E+00 at (  16,  12,   4)
       Max div. error:  0.64E+00 at (  16,  12,   4)
       Max VN number:   0.48E-03 at (  16,  13,   5)
       Mesh    6
       Max CFL number:  0.28E+00 at (   3,   2,   3)
       Max divergence:  0.53E+00 at (   1,  14,   5)
       Min divergence: -0.65E+00 at (   4,  12,   1)
       Max div. error:  0.66E+00 at (   4,  12,   1)
       Max VN number:   0.51E-03 at (   1,  13,   5)
       Mesh    7
       Max CFL number:  0.26E+00 at (  12,   4,   4)
       Max divergence:  0.53E+00 at (  14,   1,   5)
       Min divergence: -0.55E+00 at (  12,   4,   1)
       Max div. error:  0.57E+00 at (  12,   4,   1)
       Max VN number:   0.50E-03 at (  13,   1,   5)
       Mesh    8
       Max CFL number:  0.31E-01 at (   1,   1,  10)
       Max divergence:  0.36E+00 at (   1,   1,   5)
       Min divergence: -0.80E-02 at (   5,   2,   2)
       Max div. error:  0.38E+00 at (   1,   1,   5)
       Max VN number:   0.49E-03 at (   1,   1,   5)
 


 Time Stepping Wall Clock Time (s):      367.048
 Total Elapsed Wall Clock Time (s):     1217.591

STOP: FDS completed successfully (CHID: pressure_iteration3d_mgm_simple)
